puts "Building Model..." 
model basic -ndm 2 -ndf 3 
node 6000 0.000000 0.000000 
node 6001 0.000000 180.000000 
node 6002 240.000000 180.000000 
node 6003 240.000000 0.000000 
node 6004 480.000000 180.000000 
node 6005 480.000000 0.000000 
node 6006 720.000000 180.000000 
node 6007 720.000000 0.000000 
node 6008 0.000000 336.000000 
node 6009 240.000000 336.000000 
node 6010 480.000000 336.000000 
node 6011 720.000000 336.000000 
node 6012 0.000000 492.000000 
node 6013 240.000000 492.000000 
node 6014 480.000000 492.000000 
node 6015 720.000000 492.000000 
node 6016 0.000000 648.000000 
node 6017 240.000000 648.000000 
node 6018 480.000000 648.000000 
node 6019 720.000000 648.000000 
# ... 225 like lines cut
fix 6000 1 1 1 
fix 6001 0 0 0 
fix 6002 0 0 0 
fix 6003 1 1 1 
fix 6004 0 0 0 
fix 6005 1 1 1 
fix 6006 0 0 0 
fix 6007 1 1 1 
fix 6008 0 0 0 
fix 6009 0 0 0 
fix 6010 0 0 0 
fix 6011 0 0 0 
fix 6012 0 0 0 
fix 6013 0 0 0 
fix 6014 0 0 0 
fix 6015 0 0 0 
fix 6016 0 0 0 
fix 6017 0 0 0 
fix 6018 0 0 0 
fix 6019 0 0 0 
# ... 225 like lines cut
mass 6000 0.194301 0.194301 0. 
mass 6001 295.336788 295.336788 0. 
mass 6002 590.673575 590.673575 0. 
mass 6003 0.194301 0.194301 0. 
mass 6004 590.673575 590.673575 0. 
mass 6005 0.194301 0.194301 0. 
mass 6006 295.336788 295.336788 0. 
mass 6007 0.194301 0.194301 0. 
mass 6008 295.336788 295.336788 0. 
mass 6009 590.673575 590.673575 0. 
mass 6010 590.673575 590.673575 0. 
mass 6011 295.336788 295.336788 0. 
mass 6012 295.336788 295.336788 0. 
mass 6013 590.673575 590.673575 0. 
mass 6014 590.673575 590.673575 0. 
mass 6015 295.336788 295.336788 0. 
mass 6016 295.336788 295.336788 0. 
mass 6017 590.673575 590.673575 0. 
mass 6018 590.673575 590.673575 0. 
mass 6019 295.336788 295.336788 0. 
# ... 225 like lines cut
geomTransf PDelta 1 
geomTransf PDelta 2 
element elasticBeamColumn 1 6133 6134 864.000000 4768962.151244 71850.240000 1 
element elasticBeamColumn 2 6135 6136 1008.000000 4030508.652763 100943.056410 2 
element elasticBeamColumn 3 6137 6138 864.000000 4768962.151244 71850.240000 1 
element elasticBeamColumn 4 6139 6140 1008.000000 4030508.652763 100943.056410 2 
element elasticBeamColumn 5 6141 6142 864.000000 4768962.151244 71850.240000 1 
element elasticBeamColumn 6 6143 6144 1008.000000 4030508.652763 100943.056410 2 
element elasticBeamColumn 7 6145 6146 864.000000 4768962.151244 71850.240000 1 
element elasticBeamColumn 8 6147 6148 864.000000 4768962.151244 71850.240000 1 
element elasticBeamColumn 9 6149 6150 1008.000000 4030508.652763 100943.056410 2 
element elasticBeamColumn 10 6151 6152 864.000000 4768962.151244 71850.240000 1 
element elasticBeamColumn 11 6153 6154 1008.000000 4030508.652763 100943.056410 2 
element elasticBeamColumn 12 6155 6156 864.000000 4768962.151244 71850.240000 1 
element elasticBeamColumn 13 6157 6158 1008.000000 4030508.652763 100943.056410 2 
element elasticBeamColumn 14 6159 6160 864.000000 4768962.151244 71850.240000 1 
element elasticBeamColumn 15 6161 6162 864.000000 4768962.151244 71850.240000 1 
element elasticBeamColumn 16 6163 6164 1008.000000 4030508.652763 100943.056410 2 
element elasticBeamColumn 17 6165 6166 864.000000 4768962.151244 71850.240000 1 
element elasticBeamColumn 18 6167 6168 1008.000000 4030508.652763 100943.056410 2 
element elasticBeamColumn 19 6169 6170 864.000000 4768962.151244 71850.240000 1 
element elasticBeamColumn 20 6171 6172 1008.000000 4030508.652763 100943.056410 2 
# ... 52 like lines cut
uniaxialMaterial Elastic 1 999999999. 
uniaxialMaterial Elastic 222222 999999999999. 
uniaxialMaterial Elastic 2 999999999999. 
node 40001 0.000000 159.000000 
element elasticBeamColumn 1000002 40001 6037 1008.000000 4030508.652763 64236.490443 2 
element elasticBeamColumn 1000003 6036 40001 1000. 99999999. 200000. 1 
element elasticBeamColumn 1000004 40001 6001 1000. 99999999. 200000. 1 
node 40002 240.000000 159.000000 
element elasticBeamColumn 2000001 6039 40002 1008.000000 4030508.652763 64236.490443 2 
element elasticBeamColumn 2000002 40002 6040 1008.000000 4030508.652763 64236.490443 2 
element elasticBeamColumn 2000003 6038 40002 1000. 99999999. 200000. 1 
element elasticBeamColumn 2000004 40002 6002 1000. 99999999. 200000. 1 
node 40003 480.000000 159.000000 
element elasticBeamColumn 3000001 6042 40003 1008.000000 4030508.652763 64236.490443 2 
element elasticBeamColumn 3000002 40003 6043 1008.000000 4030508.652763 64236.490443 2 
element elasticBeamColumn 3000003 6041 40003 1000. 99999999. 200000. 1 
element elasticBeamColumn 3000004 40003 6004 1000. 99999999. 200000. 1 
element elasticBeamColumn 4000001 6045 6125 1008.000000 4030508.652763 64236.490443 2 
element elasticBeamColumn 4000003 6044 6125 1000. 99999999. 200000. 1 
element elasticBeamColumn 4000004 6125 6006 1000. 99999999. 200000. 1 
node 40005 0.000000 315.000000 
element elasticBeamColumn 5000002 40005 6047 1008.000000 4030508.652763 64236.490443 2 
element elasticBeamColumn 5000003 6046 40005 1000. 99999999. 200000. 1 
element elasticBeamColumn 5000004 40005 6008 1000. 99999999. 200000. 1 
node 40006 240.000000 315.000000 
element elasticBeamColumn 6000001 6049 40006 1008.000000 4030508.652763 64236.490443 2 
element elasticBeamColumn 6000002 40006 6050 1008.000000 4030508.652763 64236.490443 2 
element elasticBeamColumn 6000003 6048 40006 1000. 99999999. 200000. 1 
element elasticBeamColumn 6000004 40006 6009 1000. 99999999. 200000. 1 
node 40007 480.000000 315.000000 
element elasticBeamColumn 7000001 6052 40007 1008.000000 4030508.652763 64236.490443 2 
element elasticBeamColumn 7000002 40007 6053 1008.000000 4030508.652763 64236.490443 2 
element elasticBeamColumn 7000003 6051 40007 1000. 99999999. 200000. 1 
element elasticBeamColumn 7000004 40007 6010 1000. 99999999. 200000. 1 
element elasticBeamColumn 8000001 6055 6126 1008.000000 4030508.652763 64236.490443 2 
element elasticBeamColumn 8000003 6054 6126 1000. 99999999. 200000. 1 
element elasticBeamColumn 8000004 6126 6011 1000. 99999999. 200000. 1 
node 40009 0.000000 471.000000 
element elasticBeamColumn 9000002 40009 6057 1008.000000 4030508.652763 64236.490443 2 
element elasticBeamColumn 9000003 6056 40009 1000. 99999999. 200000. 1 
element elasticBeamColumn 9000004 40009 6012 1000. 99999999. 200000. 1 
node 40010 240.000000 471.000000 
element elasticBeamColumn 10000001 6059 40010 1008.000000 4030508.652763 64236.490443 2 
element elasticBeamColumn 10000002 40010 6060 1008.000000 4030508.652763 64236.490443 2 
element elasticBeamColumn 10000003 6058 40010 1000. 99999999. 200000. 1 
element elasticBeamColumn 10000004 40010 6013 1000. 99999999. 200000. 1 
node 40011 480.000000 471.000000 
element elasticBeamColumn 11000001 6062 40011 1008.000000 4030508.652763 64236.490443 2 
element elasticBeamColumn 11000002 40011 6063 1008.000000 4030508.652763 64236.490443 2 
element elasticBeamColumn 11000003 6061 40011 1000. 99999999. 200000. 1 
element elasticBeamColumn 11000004 40011 6014 1000. 99999999. 200000. 1 
element elasticBeamColumn 12000001 6065 6127 1008.000000 4030508.652763 64236.490443 2 
element elasticBeamColumn 12000003 6064 6127 1000. 99999999. 200000. 1 
element elasticBeamColumn 12000004 6127 6015 1000. 99999999. 200000. 1 
node 40013 0.000000 627.000000 
element elasticBeamColumn 13000002 40013 6067 1008.000000 4030508.652763 64236.490443 2 
element elasticBeamColumn 13000003 6066 40013 1000. 99999999. 200000. 1 
element elasticBeamColumn 13000004 40013 6016 1000. 99999999. 200000. 1 
node 40014 240.000000 627.000000 
element elasticBeamColumn 14000001 6069 40014 1008.000000 4030508.652763 64236.490443 2 
element elasticBeamColumn 14000002 40014 6070 1008.000000 4030508.652763 64236.490443 2 
element elasticBeamColumn 14000003 6068 40014 1000. 99999999. 200000. 1 
element elasticBeamColumn 14000004 40014 6017 1000. 99999999. 200000. 1 
node 40015 480.000000 627.000000 
element elasticBeamColumn 15000001 6072 40015 1008.000000 4030508.652763 64236.490443 2 
element elasticBeamColumn 15000002 40015 6073 1008.000000 4030508.652763 64236.490443 2 
element elasticBeamColumn 15000003 6071 40015 1000. 99999999. 200000. 1 
element elasticBeamColumn 15000004 40015 6018 1000. 99999999. 200000. 1 
element elasticBeamColumn 16000001 6075 6128 1008.000000 4030508.652763 64236.490443 2 
element elasticBeamColumn 16000003 6074 6128 1000. 99999999. 200000. 1 
element elasticBeamColumn 16000004 6128 6019 1000. 99999999. 200000. 1 
node 40017 0.000000 786.000000 
element elasticBeamColumn 17000002 40017 6077 864.000000 4030508.652763 40973.841067 2 
element elasticBeamColumn 17000003 6076 40017 1000. 99999999. 200000. 1 
element elasticBeamColumn 17000004 40017 6020 1000. 99999999. 200000. 1 
node 40018 240.000000 786.000000 
element elasticBeamColumn 18000001 6079 40018 864.000000 4030508.652763 40973.841067 2 
element elasticBeamColumn 18000002 40018 6080 864.000000 4030508.652763 40973.841067 2 
element elasticBeamColumn 18000003 6078 40018 1000. 99999999. 200000. 1 
element elasticBeamColumn 18000004 40018 6021 1000. 99999999. 200000. 1 
node 40019 480.000000 786.000000 
element elasticBeamColumn 19000001 6082 40019 864.000000 4030508.652763 40973.841067 2 
element elasticBeamColumn 19000002 40019 6083 864.000000 4030508.652763 40973.841067 2 
element elasticBeamColumn 19000003 6081 40019 1000. 99999999. 200000. 1 
element elasticBeamColumn 19000004 40019 6022 1000. 99999999. 200000. 1 
element elasticBeamColumn 20000001 6085 6129 864.000000 4030508.652763 40973.841067 2 
element elasticBeamColumn 20000003 6084 6129 1000. 99999999. 200000. 1 
element elasticBeamColumn 20000004 6129 6023 1000. 99999999. 200000. 1 
node 40021 0.000000 942.000000 
element elasticBeamColumn 21000002 40021 6087 864.000000 4030508.652763 40973.841067 2 
element elasticBeamColumn 21000003 6086 40021 1000. 99999999. 200000. 1 
element elasticBeamColumn 21000004 40021 6024 1000. 99999999. 200000. 1 
node 40022 240.000000 942.000000 
element elasticBeamColumn 22000001 6089 40022 864.000000 4030508.652763 40973.841067 2 
element elasticBeamColumn 22000002 40022 6090 864.000000 4030508.652763 40973.841067 2 
element elasticBeamColumn 22000003 6088 40022 1000. 99999999. 200000. 1 
element elasticBeamColumn 22000004 40022 6025 1000. 99999999. 200000. 1 
node 40023 480.000000 942.000000 
element elasticBeamColumn 23000001 6092 40023 864.000000 4030508.652763 40973.841067 2 
element elasticBeamColumn 23000002 40023 6093 864.000000 4030508.652763 40973.841067 2 
element elasticBeamColumn 23000003 6091 40023 1000. 99999999. 200000. 1 
element elasticBeamColumn 23000004 40023 6026 1000. 99999999. 200000. 1 
element elasticBeamColumn 24000001 6095 6130 864.000000 4030508.652763 40973.841067 2 
element elasticBeamColumn 24000003 6094 6130 1000. 99999999. 200000. 1 
element elasticBeamColumn 24000004 6130 6027 1000. 99999999. 200000. 1 
node 40025 0.000000 1101.000000 
element elasticBeamColumn 25000002 40025 6097 720.000000 4030508.652763 24125.147287 2 
element elasticBeamColumn 25000003 6096 40025 1000. 99999999. 200000. 1 
element elasticBeamColumn 25000004 40025 6028 1000. 99999999. 200000. 1 
node 40026 240.000000 1101.000000 
element elasticBeamColumn 26000001 6099 40026 720.000000 4030508.652763 24125.147287 2 
element elasticBeamColumn 26000002 40026 6100 720.000000 4030508.652763 24125.147287 2 
element elasticBeamColumn 26000003 6098 40026 1000. 99999999. 200000. 1 
element elasticBeamColumn 26000004 40026 6029 1000. 99999999. 200000. 1 
node 40027 480.000000 1101.000000 
element elasticBeamColumn 27000001 6102 40027 720.000000 4030508.652763 24125.147287 2 
element elasticBeamColumn 27000002 40027 6103 720.000000 4030508.652763 24125.147287 2 
element elasticBeamColumn 27000003 6101 40027 1000. 99999999. 200000. 1 
element elasticBeamColumn 27000004 40027 6030 1000. 99999999. 200000. 1 
element elasticBeamColumn 28000001 6105 6131 720.000000 4030508.652763 24125.147287 2 
element elasticBeamColumn 28000003 6104 6131 1000. 99999999. 200000. 1 
element elasticBeamColumn 28000004 6131 6031 1000. 99999999. 200000. 1 
node 40029 0.000000 1257.000000 
element elasticBeamColumn 29000002 40029 6107 720.000000 4030508.652763 24125.147287 2 
element elasticBeamColumn 29000003 6106 40029 1000. 99999999. 200000. 1 
element elasticBeamColumn 29000004 40029 6032 1000. 99999999. 200000. 1 
node 40030 240.000000 1257.000000 
element elasticBeamColumn 30000001 6109 40030 720.000000 4030508.652763 24125.147287 2 
element elasticBeamColumn 30000002 40030 6110 720.000000 4030508.652763 24125.147287 2 
element elasticBeamColumn 30000003 6108 40030 1000. 99999999. 200000. 1 
element elasticBeamColumn 30000004 40030 6033 1000. 99999999. 200000. 1 
node 40031 480.000000 1257.000000 
element elasticBeamColumn 31000001 6112 40031 720.000000 4030508.652763 24125.147287 2 
element elasticBeamColumn 31000002 40031 6113 720.000000 4030508.652763 24125.147287 2 
element elasticBeamColumn 31000003 6111 40031 1000. 99999999. 200000. 1 
element elasticBeamColumn 31000004 40031 6034 1000. 99999999. 200000. 1 
element elasticBeamColumn 32000001 6115 6132 720.000000 4030508.652763 24125.147287 2 
element elasticBeamColumn 32000003 6114 6132 1000. 99999999. 200000. 1 
element elasticBeamColumn 32000004 6132 6035 1000. 99999999. 200000. 1 
uniaxialMaterial IMKPeakOriented 73 148978728312.093140 0.075145 0.115160 0.999999 22600008.752169 1.189419 0.050000 0.075145 0.115160 0.999999 22600008.752169 1.189419 0.050000 100.0 100.0 100.0 100.0 1.0 1.0 1.0 1.0 1.0 1.0 
element zeroLength 73 6133 6000 -mat 73 -dir 3 
element zeroLength 50073 6133 6000 -mat 1 1 -dir 1 2 
uniaxialMaterial IMKPeakOriented 74 148978728312.093140 0.075145 0.115160 0.999999 22600008.752169 1.189419 0.050000 0.075145 0.115160 0.999999 22600008.752169 1.189419 0.050000 100.0 100.0 100.0 100.0 1.0 1.0 1.0 1.0 1.0 1.0 
element zeroLength 74 6036 6134 -mat 74 -dir 3 
element zeroLength 50074 6036 6134 -mat 1 1 -dir 1 2 
uniaxialMaterial IMKPeakOriented 75 119662312440.563050 0.058358 0.114852 0.999999 13031961.895816 1.209983 0.050000 0.058358 0.114852 0.999999 16172868.350021 1.209983 0.050000 100.0 100.0 100.0 100.0 1.0 1.0 1.0 1.0 1.0 1.0 
element zeroLength 75 6135 6037 -mat 75 -dir 3 
element zeroLength 50075 6135 6037 -mat 1 1 -dir 1 2 
uniaxialMaterial IMKPeakOriented 76 119662312440.563050 0.058358 0.114852 0.999999 13031961.895816 1.209983 0.050000 0.058358 0.114852 0.999999 16172868.350021 1.209983 0.050000 100.0 100.0 100.0 100.0 1.0 1.0 1.0 1.0 1.0 1.0 
element zeroLength 76 6039 6136 -mat 76 -dir 3 
element zeroLength 50076 6039 6136 -mat 1 1 -dir 1 2 
uniaxialMaterial IMKPeakOriented 77 148978728312.093140 0.070277 0.115201 0.999999 20904979.917462 1.186779 0.050000 0.070277 0.115201 0.999999 20904979.917462 1.186779 0.050000 100.0 100.0 100.0 100.0 1.0 1.0 1.0 1.0 1.0 1.0 
element zeroLength 77 6137 6003 -mat 77 -dir 3 
element zeroLength 50077 6137 6003 -mat 1 1 -dir 1 2 
uniaxialMaterial IMKPeakOriented 78 148978728312.093140 0.070277 0.115201 0.999999 20904979.917462 1.186779 0.050000 0.070277 0.115201 0.999999 20904979.917462 1.186779 0.050000 100.0 100.0 100.0 100.0 1.0 1.0 1.0 1.0 1.0 1.0 
element zeroLength 78 6038 6138 -mat 78 -dir 3 
element zeroLength 50078 6038 6138 -mat 1 1 -dir 1 2 
uniaxialMaterial IMKPeakOriented 79 119662312440.563050 0.058358 0.114852 0.999999 13031961.895816 1.209983 0.050000 0.058358 0.114852 0.999999 16172868.350021 1.209983 0.050000 100.0 100.0 100.0 100.0 1.0 1.0 1.0 1.0 1.0 1.0 
element zeroLength 79 6139 6040 -mat 79 -dir 3 
element zeroLength 50079 6139 6040 -mat 1 1 -dir 1 2 
uniaxialMaterial IMKPeakOriented 80 119662312440.563050 0.058358 0.114852 0.999999 13031961.895816 1.209983 0.050000 0.058358 0.114852 0.999999 16172868.350021 1.209983 0.050000 100.0 100.0 100.0 100.0 1.0 1.0 1.0 1.0 1.0 1.0 
element zeroLength 80 6042 6140 -mat 80 -dir 3 
element zeroLength 50080 6042 6140 -mat 1 1 -dir 1 2 
uniaxialMaterial IMKPeakOriented 81 148978728312.093140 0.070277 0.115201 0.999999 20904979.917462 1.186779 0.050000 0.070277 0.115201 0.999999 20904979.917462 1.186779 0.050000 100.0 100.0 100.0 100.0 1.0 1.0 1.0 1.0 1.0 1.0 
element zeroLength 81 6141 6005 -mat 81 -dir 3 
element zeroLength 50081 6141 6005 -mat 1 1 -dir 1 2 
uniaxialMaterial IMKPeakOriented 82 148978728312.093140 0.070277 0.115201 0.999999 20904979.917462 1.186779 0.050000 0.070277 0.115201 0.999999 20904979.917462 1.186779 0.050000 100.0 100.0 100.0 100.0 1.0 1.0 1.0 1.0 1.0 1.0 
element zeroLength 82 6041 6142 -mat 82 -dir 3 
element zeroLength 50082 6041 6142 -mat 1 1 -dir 1 2 
uniaxialMaterial IMKPeakOriented 83 119662312440.563050 0.058358 0.114852 0.999999 13031961.895816 1.209983 0.050000 0.058358 0.114852 0.999999 16172868.350021 1.209983 0.050000 100.0 100.0 100.0 100.0 1.0 1.0 1.0 1.0 1.0 1.0 
element zeroLength 83 6143 6043 -mat 83 -dir 3 
element zeroLength 50083 6143 6043 -mat 1 1 -dir 1 2 
uniaxialMaterial IMKPeakOriented 84 119662312440.563050 0.058358 0.114852 0.999999 13031961.895816 1.209983 0.050000 0.058358 0.114852 0.999999 16172868.350021 1.209983 0.050000 100.0 100.0 100.0 100.0 1.0 1.0 1.0 1.0 1.0 1.0 
element zeroLength 84 6045 6144 -mat 84 -dir 3 
element zeroLength 50084 6045 6144 -mat 1 1 -dir 1 2 
uniaxialMaterial IMKPeakOriented 85 148978728312.093140 0.075145 0.115160 0.999999 22600008.752169 1.189419 0.050000 0.075145 0.115160 0.999999 22600008.752169 1.189419 0.050000 100.0 100.0 100.0 100.0 1.0 1.0 1.0 1.0 1.0 1.0 
element zeroLength 85 6145 6007 -mat 85 -dir 3 
element zeroLength 50085 6145 6007 -mat 1 1 -dir 1 2 
uniaxialMaterial IMKPeakOriented 86 148978728312.093140 0.075145 0.115160 0.999999 22600008.752169 1.189419 0.050000 0.075145 0.115160 0.999999 22600008.752169 1.189419 0.050000 100.0 100.0 100.0 100.0 1.0 1.0 1.0 1.0 1.0 1.0 
element zeroLength 86 6044 6146 -mat 86 -dir 3 
element zeroLength 50086 6044 6146 -mat 1 1 -dir 1 2 
uniaxialMaterial IMKPeakOriented 87 180342671114.639100 0.071072 0.115151 0.999999 15460014.395034 1.190051 0.050000 0.071072 0.115151 0.999999 15460014.395034 1.190051 0.050000 100.0 100.0 100.0 100.0 1.0 1.0 1.0 1.0 1.0 1.0 
element zeroLength 87 6147 6001 -mat 87 -dir 3 
element zeroLength 50087 6147 6001 -mat 1 1 -dir 1 2 
uniaxialMaterial IMKPeakOriented 88 180342671114.639100 0.071072 0.115151 0.999999 15460014.395034 1.190051 0.050000 0.071072 0.115151 0.999999 15460014.395034 1.190051 0.050000 100.0 100.0 100.0 100.0 1.0 1.0 1.0 1.0 1.0 1.0 
element zeroLength 88 6046 6148 -mat 88 -dir 3 
element zeroLength 50088 6046 6148 -mat 1 1 -dir 1 2 
uniaxialMaterial IMKPeakOriented 89 119662312440.563050 0.058598 0.114852 0.999999 14596513.540664 1.209983 0.050000 0.058598 0.114852 0.999999 16187834.497488 1.209983 0.050000 100.0 100.0 100.0 100.0 1.0 1.0 1.0 1.0 1.0 1.0 
element zeroLength 89 6149 6047 -mat 89 -dir 3 
element zeroLength 50089 6149 6047 -mat 1 1 -dir 1 2 
uniaxialMaterial IMKPeakOriented 90 119662312440.563050 0.058598 0.114852 0.999999 14596513.540664 1.209983 0.050000 0.058598 0.114852 0.999999 16187834.497488 1.209983 0.050000 100.0 100.0 100.0 100.0 1.0 1.0 1.0 1.0 1.0 1.0 
element zeroLength 90 6049 6150 -mat 90 -dir 3 
element zeroLength 50090 6049 6150 -mat 1 1 -dir 1 2 
uniaxialMaterial IMKPeakOriented 91 180342671114.639100 0.071185 0.115186 0.999999 20308676.618576 1.187749 0.050000 0.071185 0.115186 0.999999 20308676.618576 1.187749 0.050000 100.0 100.0 100.0 100.0 1.0 1.0 1.0 1.0 1.0 1.0 
element zeroLength 91 6151 6002 -mat 91 -dir 3 
element zeroLength 50091 6151 6002 -mat 1 1 -dir 1 2 
uniaxialMaterial IMKPeakOriented 92 180342671114.639100 0.071185 0.115186 0.999999 20308676.618576 1.187749 0.050000 0.071185 0.115186 0.999999 20308676.618576 1.187749 0.050000 100.0 100.0 100.0 100.0 1.0 1.0 1.0 1.0 1.0 1.0 
element zeroLength 92 6048 6152 -mat 92 -dir 3 
element zeroLength 50092 6048 6152 -mat 1 1 -dir 1 2 
# ... 276 like lines cut
