puts "Building Model..." 
model basic -ndm 2 -ndf 3 
node 6000 0.000000 0.000000 
node 6001 0.000000 180.000000 
node 6002 240.000000 180.000000 
node 6003 240.000000 0.000000 
node 6004 480.000000 180.000000 
node 6005 480.000000 0.000000 
node 6006 720.000000 180.000000 
node 6007 720.000000 0.000000 
node 6008 0.000000 336.000000 
node 6009 240.000000 336.000000 
node 6010 480.000000 336.000000 
node 6011 720.000000 336.000000 
node 6012 0.000000 492.000000 
node 6013 240.000000 492.000000 
node 6014 480.000000 492.000000 
node 6015 720.000000 492.000000 
node 6016 0.000000 648.000000 
node 6017 240.000000 648.000000 
node 6018 480.000000 648.000000 
node 6019 720.000000 648.000000 
# ... 105 like lines cut
fix 6000 1 1 1 
fix 6001 0 0 0 
fix 6002 0 0 0 
fix 6003 1 1 1 
fix 6004 0 0 0 
fix 6005 1 1 1 
fix 6006 0 0 0 
fix 6007 1 1 1 
fix 6008 0 0 0 
fix 6009 0 0 0 
fix 6010 0 0 0 
fix 6011 0 0 0 
fix 6012 0 0 0 
fix 6013 0 0 0 
fix 6014 0 0 0 
fix 6015 0 0 0 
fix 6016 0 0 0 
fix 6017 0 0 0 
fix 6018 0 0 0 
fix 6019 0 0 0 
# ... 105 like lines cut
mass 6000 0.194301 0.194301 0. 
mass 6001 295.336788 295.336788 0. 
mass 6002 590.673575 590.673575 0. 
mass 6003 0.194301 0.194301 0. 
mass 6004 590.673575 590.673575 0. 
mass 6005 0.194301 0.194301 0. 
mass 6006 295.336788 295.336788 0. 
mass 6007 0.194301 0.194301 0. 
mass 6008 295.336788 295.336788 0. 
mass 6009 590.673575 590.673575 0. 
mass 6010 590.673575 590.673575 0. 
mass 6011 295.336788 295.336788 0. 
mass 6012 295.336788 295.336788 0. 
mass 6013 590.673575 590.673575 0. 
mass 6014 590.673575 590.673575 0. 
mass 6015 295.336788 295.336788 0. 
mass 6016 229.274611 229.274611 0. 
mass 6017 458.549223 458.549223 0. 
mass 6018 458.549223 458.549223 0. 
mass 6019 229.274611 229.274611 0. 
# ... 105 like lines cut
geomTransf PDelta 1 
geomTransf PDelta 2 
element elasticBeamColumn 1 6069 6070 864.000000 4768962.151244 71850.240000 1 
element elasticBeamColumn 2 6071 6072 864.000000 4030508.652763 64387.464533 2 
element elasticBeamColumn 3 6073 6074 864.000000 4768962.151244 71850.240000 1 
element elasticBeamColumn 4 6075 6076 864.000000 4030508.652763 64387.464533 2 
element elasticBeamColumn 5 6077 6078 864.000000 4768962.151244 71850.240000 1 
element elasticBeamColumn 6 6079 6080 864.000000 4030508.652763 64387.464533 2 
element elasticBeamColumn 7 6081 6082 864.000000 4768962.151244 71850.240000 1 
element elasticBeamColumn 8 6083 6084 864.000000 4768962.151244 71850.240000 1 
element elasticBeamColumn 9 6085 6086 864.000000 4030508.652763 64387.464533 2 
element elasticBeamColumn 10 6087 6088 864.000000 4768962.151244 71850.240000 1 
element elasticBeamColumn 11 6089 6090 864.000000 4030508.652763 64387.464533 2 
element elasticBeamColumn 12 6091 6092 864.000000 4768962.151244 71850.240000 1 
element elasticBeamColumn 13 6093 6094 864.000000 4030508.652763 64387.464533 2 
element elasticBeamColumn 14 6095 6096 864.000000 4768962.151244 71850.240000 1 
element elasticBeamColumn 15 6097 6098 864.000000 4768962.151244 71850.240000 1 
element elasticBeamColumn 16 6099 6100 864.000000 4030508.652763 64387.464533 2 
element elasticBeamColumn 17 6101 6102 864.000000 4768962.151244 71850.240000 1 
element elasticBeamColumn 18 6103 6104 864.000000 4030508.652763 64387.464533 2 
element elasticBeamColumn 19 6105 6106 864.000000 4768962.151244 71850.240000 1 
element elasticBeamColumn 20 6107 6108 864.000000 4030508.652763 64387.464533 2 
# ... 16 like lines cut
uniaxialMaterial Elastic 1 999999999. 
uniaxialMaterial Elastic 222222 999999999999. 
uniaxialMaterial Elastic 2 999999999999. 
node 40001 0.000000 162.000000 
element elasticBeamColumn 1000002 40001 6021 864.000000 4030508.652763 40973.841067 2 
element elasticBeamColumn 1000003 6020 40001 1000. 99999999. 200000. 1 
element elasticBeamColumn 1000004 40001 6001 1000. 99999999. 200000. 1 
node 40002 240.000000 162.000000 
element elasticBeamColumn 2000001 6023 40002 864.000000 4030508.652763 40973.841067 2 
element elasticBeamColumn 2000002 40002 6024 864.000000 4030508.652763 40973.841067 2 
element elasticBeamColumn 2000003 6022 40002 1000. 99999999. 200000. 1 
element elasticBeamColumn 2000004 40002 6002 1000. 99999999. 200000. 1 
node 40003 480.000000 162.000000 
element elasticBeamColumn 3000001 6026 40003 864.000000 4030508.652763 40973.841067 2 
element elasticBeamColumn 3000002 40003 6027 864.000000 4030508.652763 40973.841067 2 
element elasticBeamColumn 3000003 6025 40003 1000. 99999999. 200000. 1 
element elasticBeamColumn 3000004 40003 6004 1000. 99999999. 200000. 1 
element elasticBeamColumn 4000001 6029 6065 864.000000 4030508.652763 40973.841067 2 
element elasticBeamColumn 4000003 6028 6065 1000. 99999999. 200000. 1 
element elasticBeamColumn 4000004 6065 6006 1000. 99999999. 200000. 1 
node 40005 0.000000 318.000000 
element elasticBeamColumn 5000002 40005 6031 864.000000 4030508.652763 40973.841067 2 
element elasticBeamColumn 5000003 6030 40005 1000. 99999999. 200000. 1 
element elasticBeamColumn 5000004 40005 6008 1000. 99999999. 200000. 1 
node 40006 240.000000 318.000000 
element elasticBeamColumn 6000001 6033 40006 864.000000 4030508.652763 40973.841067 2 
element elasticBeamColumn 6000002 40006 6034 864.000000 4030508.652763 40973.841067 2 
element elasticBeamColumn 6000003 6032 40006 1000. 99999999. 200000. 1 
element elasticBeamColumn 6000004 40006 6009 1000. 99999999. 200000. 1 
node 40007 480.000000 318.000000 
element elasticBeamColumn 7000001 6036 40007 864.000000 4030508.652763 40973.841067 2 
element elasticBeamColumn 7000002 40007 6037 864.000000 4030508.652763 40973.841067 2 
element elasticBeamColumn 7000003 6035 40007 1000. 99999999. 200000. 1 
element elasticBeamColumn 7000004 40007 6010 1000. 99999999. 200000. 1 
element elasticBeamColumn 8000001 6039 6066 864.000000 4030508.652763 40973.841067 2 
element elasticBeamColumn 8000003 6038 6066 1000. 99999999. 200000. 1 
element elasticBeamColumn 8000004 6066 6011 1000. 99999999. 200000. 1 
node 40009 0.000000 474.000000 
element elasticBeamColumn 9000002 40009 6041 864.000000 4030508.652763 40973.841067 2 
element elasticBeamColumn 9000003 6040 40009 1000. 99999999. 200000. 1 
element elasticBeamColumn 9000004 40009 6012 1000. 99999999. 200000. 1 
node 40010 240.000000 474.000000 
element elasticBeamColumn 10000001 6043 40010 864.000000 4030508.652763 40973.841067 2 
element elasticBeamColumn 10000002 40010 6044 864.000000 4030508.652763 40973.841067 2 
element elasticBeamColumn 10000003 6042 40010 1000. 99999999. 200000. 1 
element elasticBeamColumn 10000004 40010 6013 1000. 99999999. 200000. 1 
node 40011 480.000000 474.000000 
element elasticBeamColumn 11000001 6046 40011 864.000000 4030508.652763 40973.841067 2 
element elasticBeamColumn 11000002 40011 6047 864.000000 4030508.652763 40973.841067 2 
element elasticBeamColumn 11000003 6045 40011 1000. 99999999. 200000. 1 
element elasticBeamColumn 11000004 40011 6014 1000. 99999999. 200000. 1 
element elasticBeamColumn 12000001 6049 6067 864.000000 4030508.652763 40973.841067 2 
element elasticBeamColumn 12000003 6048 6067 1000. 99999999. 200000. 1 
element elasticBeamColumn 12000004 6067 6015 1000. 99999999. 200000. 1 
node 40013 0.000000 630.000000 
element elasticBeamColumn 13000002 40013 6051 864.000000 4030508.652763 40973.841067 2 
element elasticBeamColumn 13000003 6050 40013 1000. 99999999. 200000. 1 
element elasticBeamColumn 13000004 40013 6016 1000. 99999999. 200000. 1 
node 40014 240.000000 630.000000 
element elasticBeamColumn 14000001 6053 40014 864.000000 4030508.652763 40973.841067 2 
element elasticBeamColumn 14000002 40014 6054 864.000000 4030508.652763 40973.841067 2 
element elasticBeamColumn 14000003 6052 40014 1000. 99999999. 200000. 1 
element elasticBeamColumn 14000004 40014 6017 1000. 99999999. 200000. 1 
node 40015 480.000000 630.000000 
element elasticBeamColumn 15000001 6056 40015 864.000000 4030508.652763 40973.841067 2 
element elasticBeamColumn 15000002 40015 6057 864.000000 4030508.652763 40973.841067 2 
element elasticBeamColumn 15000003 6055 40015 1000. 99999999. 200000. 1 
element elasticBeamColumn 15000004 40015 6018 1000. 99999999. 200000. 1 
element elasticBeamColumn 16000001 6059 6068 864.000000 4030508.652763 40973.841067 2 
element elasticBeamColumn 16000003 6058 6068 1000. 99999999. 200000. 1 
element elasticBeamColumn 16000004 6068 6019 1000. 99999999. 200000. 1 
uniaxialMaterial IMKPeakOriented 37 142771281299.089260 0.072875 0.115122 0.999999 14212209.996916 1.191948 0.050000 0.072875 0.115122 0.999999 14212209.996916 1.191948 0.050000 100.0 100.0 100.0 100.0 1.0 1.0 1.0 1.0 1.0 1.0 
element zeroLength 37 6069 6000 -mat 37 -dir 3 
element zeroLength 50037 6069 6000 -mat 1 1 -dir 1 2 
uniaxialMaterial IMKPeakOriented 38 142771281299.089260 0.072875 0.115122 0.999999 14212209.996916 1.191948 0.050000 0.072875 0.115122 0.999999 14212209.996916 1.191948 0.050000 100.0 100.0 100.0 100.0 1.0 1.0 1.0 1.0 1.0 1.0 
element zeroLength 38 6020 6070 -mat 38 -dir 3 
element zeroLength 50038 6020 6070 -mat 1 1 -dir 1 2 
uniaxialMaterial IMKPeakOriented 39 76327715567.968109 0.043168 0.114852 0.999999 7039752.209081 1.209983 0.050000 0.043168 0.114852 0.999999 10984639.112489 1.209983 0.050000 100.0 100.0 100.0 100.0 1.0 1.0 1.0 1.0 1.0 1.0 
element zeroLength 39 6071 6021 -mat 39 -dir 3 
element zeroLength 50039 6071 6021 -mat 1 1 -dir 1 2 
uniaxialMaterial IMKPeakOriented 40 76327715567.968109 0.043168 0.114852 0.999999 7039752.209081 1.209983 0.050000 0.043168 0.114852 0.999999 10984639.112489 1.209983 0.050000 100.0 100.0 100.0 100.0 1.0 1.0 1.0 1.0 1.0 1.0 
element zeroLength 40 6023 6072 -mat 40 -dir 3 
element zeroLength 50040 6023 6072 -mat 1 1 -dir 1 2 
uniaxialMaterial IMKPeakOriented 41 142771281299.089260 0.070512 0.115141 0.999999 13369955.840060 1.190664 0.050000 0.070512 0.115141 0.999999 13369955.840060 1.190664 0.050000 100.0 100.0 100.0 100.0 1.0 1.0 1.0 1.0 1.0 1.0 
element zeroLength 41 6073 6003 -mat 41 -dir 3 
element zeroLength 50041 6073 6003 -mat 1 1 -dir 1 2 
uniaxialMaterial IMKPeakOriented 42 142771281299.089260 0.070512 0.115141 0.999999 13369955.840060 1.190664 0.050000 0.070512 0.115141 0.999999 13369955.840060 1.190664 0.050000 100.0 100.0 100.0 100.0 1.0 1.0 1.0 1.0 1.0 1.0 
element zeroLength 42 6022 6074 -mat 42 -dir 3 
element zeroLength 50042 6022 6074 -mat 1 1 -dir 1 2 
uniaxialMaterial IMKPeakOriented 43 76327715567.968109 0.043168 0.114852 0.999999 7039752.209081 1.209983 0.050000 0.043168 0.114852 0.999999 10984639.112489 1.209983 0.050000 100.0 100.0 100.0 100.0 1.0 1.0 1.0 1.0 1.0 1.0 
element zeroLength 43 6075 6024 -mat 43 -dir 3 
element zeroLength 50043 6075 6024 -mat 1 1 -dir 1 2 
uniaxialMaterial IMKPeakOriented 44 76327715567.968109 0.043168 0.114852 0.999999 7039752.209081 1.209983 0.050000 0.043168 0.114852 0.999999 10984639.112489 1.209983 0.050000 100.0 100.0 100.0 100.0 1.0 1.0 1.0 1.0 1.0 1.0 
element zeroLength 44 6026 6076 -mat 44 -dir 3 
element zeroLength 50044 6026 6076 -mat 1 1 -dir 1 2 
uniaxialMaterial IMKPeakOriented 45 142771281299.089260 0.070512 0.115141 0.999999 13369955.840060 1.190664 0.050000 0.070512 0.115141 0.999999 13369955.840060 1.190664 0.050000 100.0 100.0 100.0 100.0 1.0 1.0 1.0 1.0 1.0 1.0 
element zeroLength 45 6077 6005 -mat 45 -dir 3 
element zeroLength 50045 6077 6005 -mat 1 1 -dir 1 2 
uniaxialMaterial IMKPeakOriented 46 142771281299.089260 0.070512 0.115141 0.999999 13369955.840060 1.190664 0.050000 0.070512 0.115141 0.999999 13369955.840060 1.190664 0.050000 100.0 100.0 100.0 100.0 1.0 1.0 1.0 1.0 1.0 1.0 
element zeroLength 46 6025 6078 -mat 46 -dir 3 
element zeroLength 50046 6025 6078 -mat 1 1 -dir 1 2 
uniaxialMaterial IMKPeakOriented 47 76327715567.968109 0.043168 0.114852 0.999999 7039752.209081 1.209983 0.050000 0.043168 0.114852 0.999999 10984639.112489 1.209983 0.050000 100.0 100.0 100.0 100.0 1.0 1.0 1.0 1.0 1.0 1.0 
element zeroLength 47 6079 6027 -mat 47 -dir 3 
element zeroLength 50047 6079 6027 -mat 1 1 -dir 1 2 
uniaxialMaterial IMKPeakOriented 48 76327715567.968109 0.043168 0.114852 0.999999 7039752.209081 1.209983 0.050000 0.043168 0.114852 0.999999 10984639.112489 1.209983 0.050000 100.0 100.0 100.0 100.0 1.0 1.0 1.0 1.0 1.0 1.0 
element zeroLength 48 6029 6080 -mat 48 -dir 3 
element zeroLength 50048 6029 6080 -mat 1 1 -dir 1 2 
uniaxialMaterial IMKPeakOriented 49 142771281299.089260 0.072875 0.115122 0.999999 14212209.996916 1.191948 0.050000 0.072875 0.115122 0.999999 14212209.996916 1.191948 0.050000 100.0 100.0 100.0 100.0 1.0 1.0 1.0 1.0 1.0 1.0 
element zeroLength 49 6081 6007 -mat 49 -dir 3 
element zeroLength 50049 6081 6007 -mat 1 1 -dir 1 2 
uniaxialMaterial IMKPeakOriented 50 142771281299.089260 0.072875 0.115122 0.999999 14212209.996916 1.191948 0.050000 0.072875 0.115122 0.999999 14212209.996916 1.191948 0.050000 100.0 100.0 100.0 100.0 1.0 1.0 1.0 1.0 1.0 1.0 
element zeroLength 50 6028 6082 -mat 50 -dir 3 
element zeroLength 50050 6028 6082 -mat 1 1 -dir 1 2 
uniaxialMaterial IMKPeakOriented 51 171325537558.907100 0.072319 0.115112 0.999999 12099075.914266 1.192581 0.050000 0.072319 0.115112 0.999999 12099075.914266 1.192581 0.050000 100.0 100.0 100.0 100.0 1.0 1.0 1.0 1.0 1.0 1.0 
element zeroLength 51 6083 6001 -mat 51 -dir 3 
element zeroLength 50051 6083 6001 -mat 1 1 -dir 1 2 
uniaxialMaterial IMKPeakOriented 52 171325537558.907100 0.072319 0.115112 0.999999 12099075.914266 1.192581 0.050000 0.072319 0.115112 0.999999 12099075.914266 1.192581 0.050000 100.0 100.0 100.0 100.0 1.0 1.0 1.0 1.0 1.0 1.0 
element zeroLength 52 6030 6084 -mat 52 -dir 3 
element zeroLength 50052 6030 6084 -mat 1 1 -dir 1 2 
uniaxialMaterial IMKPeakOriented 53 76327715567.968109 0.043168 0.114852 0.999999 7039752.209081 1.209983 0.050000 0.043168 0.114852 0.999999 10984639.112489 1.209983 0.050000 100.0 100.0 100.0 100.0 1.0 1.0 1.0 1.0 1.0 1.0 
element zeroLength 53 6085 6031 -mat 53 -dir 3 
element zeroLength 50053 6085 6031 -mat 1 1 -dir 1 2 
uniaxialMaterial IMKPeakOriented 54 76327715567.968109 0.043168 0.114852 0.999999 7039752.209081 1.209983 0.050000 0.043168 0.114852 0.999999 10984639.112489 1.209983 0.050000 100.0 100.0 100.0 100.0 1.0 1.0 1.0 1.0 1.0 1.0 
element zeroLength 54 6033 6086 -mat 54 -dir 3 
element zeroLength 50054 6033 6086 -mat 1 1 -dir 1 2 
uniaxialMaterial IMKPeakOriented 55 171325537558.907100 0.071423 0.115127 0.999999 12723932.363719 1.191637 0.050000 0.071423 0.115127 0.999999 12723932.363719 1.191637 0.050000 100.0 100.0 100.0 100.0 1.0 1.0 1.0 1.0 1.0 1.0 
element zeroLength 55 6087 6002 -mat 55 -dir 3 
element zeroLength 50055 6087 6002 -mat 1 1 -dir 1 2 
uniaxialMaterial IMKPeakOriented 56 171325537558.907100 0.071423 0.115127 0.999999 12723932.363719 1.191637 0.050000 0.071423 0.115127 0.999999 12723932.363719 1.191637 0.050000 100.0 100.0 100.0 100.0 1.0 1.0 1.0 1.0 1.0 1.0 
element zeroLength 56 6032 6088 -mat 56 -dir 3 
element zeroLength 50056 6032 6088 -mat 1 1 -dir 1 2 
# ... 108 like lines cut
