puts "Building Model..." 
model basic -ndm 2 -ndf 3 
node 6000 0.000000 0.000000 
node 6001 0.000000 180.000000 
node 6002 240.000000 180.000000 
node 6003 240.000000 0.000000 
node 6004 480.000000 180.000000 
node 6005 480.000000 0.000000 
node 6006 720.000000 180.000000 
node 6007 720.000000 0.000000 
node 6008 0.000000 336.000000 
node 6009 240.000000 336.000000 
node 6010 480.000000 336.000000 
node 6011 720.000000 336.000000 
node 6012 0.000000 492.000000 
node 6013 240.000000 492.000000 
node 6014 480.000000 492.000000 
node 6015 720.000000 492.000000 
node 6016 0.000000 648.000000 
node 6017 240.000000 648.000000 
node 6018 480.000000 648.000000 
node 6019 720.000000 648.000000 
# ... 345 like lines cut
fix 6000 1 1 1 
fix 6001 0 0 0 
fix 6002 0 0 0 
fix 6003 1 1 1 
fix 6004 0 0 0 
fix 6005 1 1 1 
fix 6006 0 0 0 
fix 6007 1 1 1 
fix 6008 0 0 0 
fix 6009 0 0 0 
fix 6010 0 0 0 
fix 6011 0 0 0 
fix 6012 0 0 0 
fix 6013 0 0 0 
fix 6014 0 0 0 
fix 6015 0 0 0 
fix 6016 0 0 0 
fix 6017 0 0 0 
fix 6018 0 0 0 
fix 6019 0 0 0 
# ... 345 like lines cut
mass 6000 0.194301 0.194301 0. 
mass 6001 295.336788 295.336788 0. 
mass 6002 590.673575 590.673575 0. 
mass 6003 0.194301 0.194301 0. 
mass 6004 590.673575 590.673575 0. 
mass 6005 0.194301 0.194301 0. 
mass 6006 295.336788 295.336788 0. 
mass 6007 0.194301 0.194301 0. 
mass 6008 295.336788 295.336788 0. 
mass 6009 590.673575 590.673575 0. 
mass 6010 590.673575 590.673575 0. 
mass 6011 295.336788 295.336788 0. 
mass 6012 295.336788 295.336788 0. 
mass 6013 590.673575 590.673575 0. 
mass 6014 590.673575 590.673575 0. 
mass 6015 295.336788 295.336788 0. 
mass 6016 295.336788 295.336788 0. 
mass 6017 590.673575 590.673575 0. 
mass 6018 590.673575 590.673575 0. 
mass 6019 295.336788 295.336788 0. 
# ... 345 like lines cut
geomTransf PDelta 1 
geomTransf PDelta 2 
element elasticBeamColumn 1 6197 6198 864.000000 4768962.151244 71850.240000 1 
element elasticBeamColumn 2 6199 6200 864.000000 4030508.652763 64387.464533 2 
element elasticBeamColumn 3 6201 6202 864.000000 4768962.151244 71850.240000 1 
element elasticBeamColumn 4 6203 6204 864.000000 4030508.652763 64387.464533 2 
element elasticBeamColumn 5 6205 6206 864.000000 4768962.151244 71850.240000 1 
element elasticBeamColumn 6 6207 6208 864.000000 4030508.652763 64387.464533 2 
element elasticBeamColumn 7 6209 6210 864.000000 4768962.151244 71850.240000 1 
element elasticBeamColumn 8 6211 6212 864.000000 4030508.652763 71850.240000 1 
element elasticBeamColumn 9 6213 6214 864.000000 4030508.652763 64387.464533 2 
element elasticBeamColumn 10 6215 6216 864.000000 4768962.151244 71850.240000 1 
element elasticBeamColumn 11 6217 6218 864.000000 4030508.652763 64387.464533 2 
element elasticBeamColumn 12 6219 6220 864.000000 4768962.151244 71850.240000 1 
element elasticBeamColumn 13 6221 6222 864.000000 4030508.652763 64387.464533 2 
element elasticBeamColumn 14 6223 6224 864.000000 4030508.652763 71850.240000 1 
element elasticBeamColumn 15 6225 6226 864.000000 4030508.652763 71850.240000 1 
element elasticBeamColumn 16 6227 6228 864.000000 4030508.652763 64387.464533 2 
element elasticBeamColumn 17 6229 6230 864.000000 4768962.151244 71850.240000 1 
element elasticBeamColumn 18 6231 6232 864.000000 4030508.652763 64387.464533 2 
element elasticBeamColumn 19 6233 6234 864.000000 4768962.151244 71850.240000 1 
element elasticBeamColumn 20 6235 6236 864.000000 4030508.652763 64387.464533 2 
# ... 88 like lines cut
uniaxialMaterial Elastic 1 999999999. 
uniaxialMaterial Elastic 222222 999999999999. 
uniaxialMaterial Elastic 2 999999999999. 
node 40001 0.000000 162.000000 
element elasticBeamColumn 1000002 40001 6053 864.000000 4030508.652763 40973.841067 2 
element elasticBeamColumn 1000003 6052 40001 1000. 99999999. 200000. 1 
element elasticBeamColumn 1000004 40001 6001 1000. 99999999. 200000. 1 
node 40002 240.000000 162.000000 
element elasticBeamColumn 2000001 6055 40002 864.000000 4030508.652763 40973.841067 2 
element elasticBeamColumn 2000002 40002 6056 864.000000 4030508.652763 40973.841067 2 
element elasticBeamColumn 2000003 6054 40002 1000. 99999999. 200000. 1 
element elasticBeamColumn 2000004 40002 6002 1000. 99999999. 200000. 1 
node 40003 480.000000 162.000000 
element elasticBeamColumn 3000001 6058 40003 864.000000 4030508.652763 40973.841067 2 
element elasticBeamColumn 3000002 40003 6059 864.000000 4030508.652763 40973.841067 2 
element elasticBeamColumn 3000003 6057 40003 1000. 99999999. 200000. 1 
element elasticBeamColumn 3000004 40003 6004 1000. 99999999. 200000. 1 
element elasticBeamColumn 4000001 6061 6185 864.000000 4030508.652763 40973.841067 2 
element elasticBeamColumn 4000003 6060 6185 1000. 99999999. 200000. 1 
element elasticBeamColumn 4000004 6185 6006 1000. 99999999. 200000. 1 
node 40005 0.000000 318.000000 
element elasticBeamColumn 5000002 40005 6063 864.000000 4030508.652763 40973.841067 2 
element elasticBeamColumn 5000003 6062 40005 1000. 99999999. 200000. 1 
element elasticBeamColumn 5000004 40005 6008 1000. 99999999. 200000. 1 
node 40006 240.000000 318.000000 
element elasticBeamColumn 6000001 6065 40006 864.000000 4030508.652763 40973.841067 2 
element elasticBeamColumn 6000002 40006 6066 864.000000 4030508.652763 40973.841067 2 
element elasticBeamColumn 6000003 6064 40006 1000. 99999999. 200000. 1 
element elasticBeamColumn 6000004 40006 6009 1000. 99999999. 200000. 1 
node 40007 480.000000 318.000000 
element elasticBeamColumn 7000001 6068 40007 864.000000 4030508.652763 40973.841067 2 
element elasticBeamColumn 7000002 40007 6069 864.000000 4030508.652763 40973.841067 2 
element elasticBeamColumn 7000003 6067 40007 1000. 99999999. 200000. 1 
element elasticBeamColumn 7000004 40007 6010 1000. 99999999. 200000. 1 
element elasticBeamColumn 8000001 6071 6186 864.000000 4030508.652763 40973.841067 2 
element elasticBeamColumn 8000003 6070 6186 1000. 99999999. 200000. 1 
element elasticBeamColumn 8000004 6186 6011 1000. 99999999. 200000. 1 
node 40009 0.000000 474.000000 
element elasticBeamColumn 9000002 40009 6073 864.000000 4030508.652763 40973.841067 2 
element elasticBeamColumn 9000003 6072 40009 1000. 99999999. 200000. 1 
element elasticBeamColumn 9000004 40009 6012 1000. 99999999. 200000. 1 
node 40010 240.000000 474.000000 
element elasticBeamColumn 10000001 6075 40010 864.000000 4030508.652763 40973.841067 2 
element elasticBeamColumn 10000002 40010 6076 864.000000 4030508.652763 40973.841067 2 
element elasticBeamColumn 10000003 6074 40010 1000. 99999999. 200000. 1 
element elasticBeamColumn 10000004 40010 6013 1000. 99999999. 200000. 1 
node 40011 480.000000 474.000000 
element elasticBeamColumn 11000001 6078 40011 864.000000 4030508.652763 40973.841067 2 
element elasticBeamColumn 11000002 40011 6079 864.000000 4030508.652763 40973.841067 2 
element elasticBeamColumn 11000003 6077 40011 1000. 99999999. 200000. 1 
element elasticBeamColumn 11000004 40011 6014 1000. 99999999. 200000. 1 
element elasticBeamColumn 12000001 6081 6187 864.000000 4030508.652763 40973.841067 2 
element elasticBeamColumn 12000003 6080 6187 1000. 99999999. 200000. 1 
element elasticBeamColumn 12000004 6187 6015 1000. 99999999. 200000. 1 
node 40013 0.000000 630.000000 
element elasticBeamColumn 13000002 40013 6083 864.000000 4030508.652763 40973.841067 2 
element elasticBeamColumn 13000003 6082 40013 1000. 99999999. 200000. 1 
element elasticBeamColumn 13000004 40013 6016 1000. 99999999. 200000. 1 
node 40014 240.000000 630.000000 
element elasticBeamColumn 14000001 6085 40014 864.000000 4030508.652763 40973.841067 2 
element elasticBeamColumn 14000002 40014 6086 864.000000 4030508.652763 40973.841067 2 
element elasticBeamColumn 14000003 6084 40014 1000. 99999999. 200000. 1 
element elasticBeamColumn 14000004 40014 6017 1000. 99999999. 200000. 1 
node 40015 480.000000 630.000000 
element elasticBeamColumn 15000001 6088 40015 864.000000 4030508.652763 40973.841067 2 
element elasticBeamColumn 15000002 40015 6089 864.000000 4030508.652763 40973.841067 2 
element elasticBeamColumn 15000003 6087 40015 1000. 99999999. 200000. 1 
element elasticBeamColumn 15000004 40015 6018 1000. 99999999. 200000. 1 
element elasticBeamColumn 16000001 6091 6188 864.000000 4030508.652763 40973.841067 2 
element elasticBeamColumn 16000003 6090 6188 1000. 99999999. 200000. 1 
element elasticBeamColumn 16000004 6188 6019 1000. 99999999. 200000. 1 
node 40017 0.000000 786.000000 
element elasticBeamColumn 17000002 40017 6093 864.000000 4030508.652763 40973.841067 2 
element elasticBeamColumn 17000003 6092 40017 1000. 99999999. 200000. 1 
element elasticBeamColumn 17000004 40017 6020 1000. 99999999. 200000. 1 
node 40018 240.000000 786.000000 
element elasticBeamColumn 18000001 6095 40018 864.000000 4030508.652763 40973.841067 2 
element elasticBeamColumn 18000002 40018 6096 864.000000 4030508.652763 40973.841067 2 
element elasticBeamColumn 18000003 6094 40018 1000. 99999999. 200000. 1 
element elasticBeamColumn 18000004 40018 6021 1000. 99999999. 200000. 1 
node 40019 480.000000 786.000000 
element elasticBeamColumn 19000001 6098 40019 864.000000 4030508.652763 40973.841067 2 
element elasticBeamColumn 19000002 40019 6099 864.000000 4030508.652763 40973.841067 2 
element elasticBeamColumn 19000003 6097 40019 1000. 99999999. 200000. 1 
element elasticBeamColumn 19000004 40019 6022 1000. 99999999. 200000. 1 
element elasticBeamColumn 20000001 6101 6189 864.000000 4030508.652763 40973.841067 2 
element elasticBeamColumn 20000003 6100 6189 1000. 99999999. 200000. 1 
element elasticBeamColumn 20000004 6189 6023 1000. 99999999. 200000. 1 
node 40021 0.000000 942.000000 
element elasticBeamColumn 21000002 40021 6103 864.000000 4030508.652763 40973.841067 2 
element elasticBeamColumn 21000003 6102 40021 1000. 99999999. 200000. 1 
element elasticBeamColumn 21000004 40021 6024 1000. 99999999. 200000. 1 
node 40022 240.000000 942.000000 
element elasticBeamColumn 22000001 6105 40022 864.000000 4030508.652763 40973.841067 2 
element elasticBeamColumn 22000002 40022 6106 864.000000 4030508.652763 40973.841067 2 
element elasticBeamColumn 22000003 6104 40022 1000. 99999999. 200000. 1 
element elasticBeamColumn 22000004 40022 6025 1000. 99999999. 200000. 1 
node 40023 480.000000 942.000000 
element elasticBeamColumn 23000001 6108 40023 864.000000 4030508.652763 40973.841067 2 
element elasticBeamColumn 23000002 40023 6109 864.000000 4030508.652763 40973.841067 2 
element elasticBeamColumn 23000003 6107 40023 1000. 99999999. 200000. 1 
element elasticBeamColumn 23000004 40023 6026 1000. 99999999. 200000. 1 
element elasticBeamColumn 24000001 6111 6190 864.000000 4030508.652763 40973.841067 2 
element elasticBeamColumn 24000003 6110 6190 1000. 99999999. 200000. 1 
element elasticBeamColumn 24000004 6190 6027 1000. 99999999. 200000. 1 
node 40025 0.000000 1098.000000 
element elasticBeamColumn 25000002 40025 6113 864.000000 4030508.652763 40973.841067 2 
element elasticBeamColumn 25000003 6112 40025 1000. 99999999. 200000. 1 
element elasticBeamColumn 25000004 40025 6028 1000. 99999999. 200000. 1 
node 40026 240.000000 1098.000000 
element elasticBeamColumn 26000001 6115 40026 864.000000 4030508.652763 40973.841067 2 
element elasticBeamColumn 26000002 40026 6116 864.000000 4030508.652763 40973.841067 2 
element elasticBeamColumn 26000003 6114 40026 1000. 99999999. 200000. 1 
element elasticBeamColumn 26000004 40026 6029 1000. 99999999. 200000. 1 
node 40027 480.000000 1098.000000 
element elasticBeamColumn 27000001 6118 40027 864.000000 4030508.652763 40973.841067 2 
element elasticBeamColumn 27000002 40027 6119 864.000000 4030508.652763 40973.841067 2 
element elasticBeamColumn 27000003 6117 40027 1000. 99999999. 200000. 1 
element elasticBeamColumn 27000004 40027 6030 1000. 99999999. 200000. 1 
element elasticBeamColumn 28000001 6121 6191 864.000000 4030508.652763 40973.841067 2 
element elasticBeamColumn 28000003 6120 6191 1000. 99999999. 200000. 1 
element elasticBeamColumn 28000004 6191 6031 1000. 99999999. 200000. 1 
node 40029 0.000000 1254.000000 
element elasticBeamColumn 29000002 40029 6123 864.000000 4030508.652763 40973.841067 2 
element elasticBeamColumn 29000003 6122 40029 1000. 99999999. 200000. 1 
element elasticBeamColumn 29000004 40029 6032 1000. 99999999. 200000. 1 
node 40030 240.000000 1254.000000 
element elasticBeamColumn 30000001 6125 40030 864.000000 4030508.652763 40973.841067 2 
element elasticBeamColumn 30000002 40030 6126 864.000000 4030508.652763 40973.841067 2 
element elasticBeamColumn 30000003 6124 40030 1000. 99999999. 200000. 1 
element elasticBeamColumn 30000004 40030 6033 1000. 99999999. 200000. 1 
node 40031 480.000000 1254.000000 
element elasticBeamColumn 31000001 6128 40031 864.000000 4030508.652763 40973.841067 2 
element elasticBeamColumn 31000002 40031 6129 864.000000 4030508.652763 40973.841067 2 
element elasticBeamColumn 31000003 6127 40031 1000. 99999999. 200000. 1 
element elasticBeamColumn 31000004 40031 6034 1000. 99999999. 200000. 1 
element elasticBeamColumn 32000001 6131 6192 864.000000 4030508.652763 40973.841067 2 
element elasticBeamColumn 32000003 6130 6192 1000. 99999999. 200000. 1 
element elasticBeamColumn 32000004 6192 6035 1000. 99999999. 200000. 1 
node 40033 0.000000 1413.000000 
element elasticBeamColumn 33000002 40033 6133 720.000000 4030508.652763 24125.147287 2 
element elasticBeamColumn 33000003 6132 40033 1000. 99999999. 200000. 1 
element elasticBeamColumn 33000004 40033 6036 1000. 99999999. 200000. 1 
node 40034 240.000000 1413.000000 
element elasticBeamColumn 34000001 6135 40034 720.000000 4030508.652763 24125.147287 2 
element elasticBeamColumn 34000002 40034 6136 720.000000 4030508.652763 24125.147287 2 
element elasticBeamColumn 34000003 6134 40034 1000. 99999999. 200000. 1 
element elasticBeamColumn 34000004 40034 6037 1000. 99999999. 200000. 1 
node 40035 480.000000 1413.000000 
element elasticBeamColumn 35000001 6138 40035 720.000000 4030508.652763 24125.147287 2 
element elasticBeamColumn 35000002 40035 6139 720.000000 4030508.652763 24125.147287 2 
element elasticBeamColumn 35000003 6137 40035 1000. 99999999. 200000. 1 
element elasticBeamColumn 35000004 40035 6038 1000. 99999999. 200000. 1 
element elasticBeamColumn 36000001 6141 6193 720.000000 4030508.652763 24125.147287 2 
element elasticBeamColumn 36000003 6140 6193 1000. 99999999. 200000. 1 
element elasticBeamColumn 36000004 6193 6039 1000. 99999999. 200000. 1 
node 40037 0.000000 1569.000000 
element elasticBeamColumn 37000002 40037 6143 720.000000 4030508.652763 24125.147287 2 
element elasticBeamColumn 37000003 6142 40037 1000. 99999999. 200000. 1 
element elasticBeamColumn 37000004 40037 6040 1000. 99999999. 200000. 1 
node 40038 240.000000 1569.000000 
element elasticBeamColumn 38000001 6145 40038 720.000000 4030508.652763 24125.147287 2 
element elasticBeamColumn 38000002 40038 6146 720.000000 4030508.652763 24125.147287 2 
element elasticBeamColumn 38000003 6144 40038 1000. 99999999. 200000. 1 
element elasticBeamColumn 38000004 40038 6041 1000. 99999999. 200000. 1 
node 40039 480.000000 1569.000000 
element elasticBeamColumn 39000001 6148 40039 720.000000 4030508.652763 24125.147287 2 
element elasticBeamColumn 39000002 40039 6149 720.000000 4030508.652763 24125.147287 2 
element elasticBeamColumn 39000003 6147 40039 1000. 99999999. 200000. 1 
element elasticBeamColumn 39000004 40039 6042 1000. 99999999. 200000. 1 
element elasticBeamColumn 40000001 6151 6194 720.000000 4030508.652763 24125.147287 2 
element elasticBeamColumn 40000003 6150 6194 1000. 99999999. 200000. 1 
element elasticBeamColumn 40000004 6194 6043 1000. 99999999. 200000. 1 
node 40041 0.000000 1725.000000 
element elasticBeamColumn 41000002 40041 6153 720.000000 4030508.652763 24125.147287 2 
element elasticBeamColumn 41000003 6152 40041 1000. 99999999. 200000. 1 
element elasticBeamColumn 41000004 40041 6044 1000. 99999999. 200000. 1 
node 40042 240.000000 1725.000000 
element elasticBeamColumn 42000001 6155 40042 720.000000 4030508.652763 24125.147287 2 
element elasticBeamColumn 42000002 40042 6156 720.000000 4030508.652763 24125.147287 2 
element elasticBeamColumn 42000003 6154 40042 1000. 99999999. 200000. 1 
element elasticBeamColumn 42000004 40042 6045 1000. 99999999. 200000. 1 
node 40043 480.000000 1725.000000 
element elasticBeamColumn 43000001 6158 40043 720.000000 4030508.652763 24125.147287 2 
element elasticBeamColumn 43000002 40043 6159 720.000000 4030508.652763 24125.147287 2 
element elasticBeamColumn 43000003 6157 40043 1000. 99999999. 200000. 1 
element elasticBeamColumn 43000004 40043 6046 1000. 99999999. 200000. 1 
element elasticBeamColumn 44000001 6161 6195 720.000000 4030508.652763 24125.147287 2 
element elasticBeamColumn 44000003 6160 6195 1000. 99999999. 200000. 1 
element elasticBeamColumn 44000004 6195 6047 1000. 99999999. 200000. 1 
node 40045 0.000000 1881.000000 
element elasticBeamColumn 45000002 40045 6163 720.000000 4030508.652763 24125.147287 2 
element elasticBeamColumn 45000003 6162 40045 1000. 99999999. 200000. 1 
element elasticBeamColumn 45000004 40045 6048 1000. 99999999. 200000. 1 
node 40046 240.000000 1881.000000 
element elasticBeamColumn 46000001 6165 40046 720.000000 4030508.652763 24125.147287 2 
element elasticBeamColumn 46000002 40046 6166 720.000000 4030508.652763 24125.147287 2 
element elasticBeamColumn 46000003 6164 40046 1000. 99999999. 200000. 1 
element elasticBeamColumn 46000004 40046 6049 1000. 99999999. 200000. 1 
node 40047 480.000000 1881.000000 
element elasticBeamColumn 47000001 6168 40047 720.000000 4030508.652763 24125.147287 2 
element elasticBeamColumn 47000002 40047 6169 720.000000 4030508.652763 24125.147287 2 
element elasticBeamColumn 47000003 6167 40047 1000. 99999999. 200000. 1 
element elasticBeamColumn 47000004 40047 6050 1000. 99999999. 200000. 1 
element elasticBeamColumn 48000001 6171 6196 720.000000 4030508.652763 24125.147287 2 
element elasticBeamColumn 48000003 6170 6196 1000. 99999999. 200000. 1 
element elasticBeamColumn 48000004 6196 6051 1000. 99999999. 200000. 1 
uniaxialMaterial IMKPeakOriented 109 142771281299.089260 0.071521 0.115199 0.999999 22332875.965241 1.186895 0.050000 0.071521 0.115199 0.999999 22332875.965241 1.186895 0.050000 100.0 100.0 100.0 100.0 1.0 1.0 1.0 1.0 1.0 1.0 
element zeroLength 109 6197 6000 -mat 109 -dir 3 
element zeroLength 50109 6197 6000 -mat 1 1 -dir 1 2 
uniaxialMaterial IMKPeakOriented 110 142771281299.089260 0.071521 0.115199 0.999999 22332875.965241 1.186895 0.050000 0.071521 0.115199 0.999999 22332875.965241 1.186895 0.050000 100.0 100.0 100.0 100.0 1.0 1.0 1.0 1.0 1.0 1.0 
element zeroLength 110 6052 6198 -mat 110 -dir 3 
element zeroLength 50110 6052 6198 -mat 1 1 -dir 1 2 
uniaxialMaterial IMKPeakOriented 111 76327715567.968109 0.047431 0.114852 0.999999 8339612.932480 1.209983 0.050000 0.047431 0.114852 0.999999 10977325.361856 1.209983 0.050000 100.0 100.0 100.0 100.0 1.0 1.0 1.0 1.0 1.0 1.0 
element zeroLength 111 6199 6053 -mat 111 -dir 3 
element zeroLength 50111 6199 6053 -mat 1 1 -dir 1 2 
uniaxialMaterial IMKPeakOriented 112 76327715567.968109 0.047431 0.114852 0.999999 8339612.932480 1.209983 0.050000 0.047431 0.114852 0.999999 10977325.361856 1.209983 0.050000 100.0 100.0 100.0 100.0 1.0 1.0 1.0 1.0 1.0 1.0 
element zeroLength 112 6055 6200 -mat 112 -dir 3 
element zeroLength 50112 6055 6200 -mat 1 1 -dir 1 2 
uniaxialMaterial IMKPeakOriented 113 142771281299.089260 0.064652 0.115261 0.999999 19738274.702723 1.182907 0.050000 0.064652 0.115261 0.999999 19738274.702723 1.182907 0.050000 100.0 100.0 100.0 100.0 1.0 1.0 1.0 1.0 1.0 1.0 
element zeroLength 113 6201 6003 -mat 113 -dir 3 
element zeroLength 50113 6201 6003 -mat 1 1 -dir 1 2 
uniaxialMaterial IMKPeakOriented 114 142771281299.089260 0.064652 0.115261 0.999999 19738274.702723 1.182907 0.050000 0.064652 0.115261 0.999999 19738274.702723 1.182907 0.050000 100.0 100.0 100.0 100.0 1.0 1.0 1.0 1.0 1.0 1.0 
element zeroLength 114 6054 6202 -mat 114 -dir 3 
element zeroLength 50114 6054 6202 -mat 1 1 -dir 1 2 
uniaxialMaterial IMKPeakOriented 115 76327715567.968109 0.047431 0.114852 0.999999 8339612.932480 1.209983 0.050000 0.047431 0.114852 0.999999 10977325.361856 1.209983 0.050000 100.0 100.0 100.0 100.0 1.0 1.0 1.0 1.0 1.0 1.0 
element zeroLength 115 6203 6056 -mat 115 -dir 3 
element zeroLength 50115 6203 6056 -mat 1 1 -dir 1 2 
uniaxialMaterial IMKPeakOriented 116 76327715567.968109 0.047431 0.114852 0.999999 8339612.932480 1.209983 0.050000 0.047431 0.114852 0.999999 10977325.361856 1.209983 0.050000 100.0 100.0 100.0 100.0 1.0 1.0 1.0 1.0 1.0 1.0 
element zeroLength 116 6058 6204 -mat 116 -dir 3 
element zeroLength 50116 6058 6204 -mat 1 1 -dir 1 2 
uniaxialMaterial IMKPeakOriented 117 142771281299.089260 0.064652 0.115261 0.999999 19738274.702723 1.182907 0.050000 0.064652 0.115261 0.999999 19738274.702723 1.182907 0.050000 100.0 100.0 100.0 100.0 1.0 1.0 1.0 1.0 1.0 1.0 
element zeroLength 117 6205 6005 -mat 117 -dir 3 
element zeroLength 50117 6205 6005 -mat 1 1 -dir 1 2 
uniaxialMaterial IMKPeakOriented 118 142771281299.089260 0.064652 0.115261 0.999999 19738274.702723 1.182907 0.050000 0.064652 0.115261 0.999999 19738274.702723 1.182907 0.050000 100.0 100.0 100.0 100.0 1.0 1.0 1.0 1.0 1.0 1.0 
element zeroLength 118 6057 6206 -mat 118 -dir 3 
element zeroLength 50118 6057 6206 -mat 1 1 -dir 1 2 
uniaxialMaterial IMKPeakOriented 119 76327715567.968109 0.047431 0.114852 0.999999 8339612.932480 1.209983 0.050000 0.047431 0.114852 0.999999 10977325.361856 1.209983 0.050000 100.0 100.0 100.0 100.0 1.0 1.0 1.0 1.0 1.0 1.0 
element zeroLength 119 6207 6059 -mat 119 -dir 3 
element zeroLength 50119 6207 6059 -mat 1 1 -dir 1 2 
uniaxialMaterial IMKPeakOriented 120 76327715567.968109 0.047431 0.114852 0.999999 8339612.932480 1.209983 0.050000 0.047431 0.114852 0.999999 10977325.361856 1.209983 0.050000 100.0 100.0 100.0 100.0 1.0 1.0 1.0 1.0 1.0 1.0 
element zeroLength 120 6061 6208 -mat 120 -dir 3 
element zeroLength 50120 6061 6208 -mat 1 1 -dir 1 2 
uniaxialMaterial IMKPeakOriented 121 142771281299.089260 0.071521 0.115199 0.999999 22332875.965241 1.186895 0.050000 0.071521 0.115199 0.999999 22332875.965241 1.186895 0.050000 100.0 100.0 100.0 100.0 1.0 1.0 1.0 1.0 1.0 1.0 
element zeroLength 121 6209 6007 -mat 121 -dir 3 
element zeroLength 50121 6209 6007 -mat 1 1 -dir 1 2 
uniaxialMaterial IMKPeakOriented 122 142771281299.089260 0.071521 0.115199 0.999999 22332875.965241 1.186895 0.050000 0.071521 0.115199 0.999999 22332875.965241 1.186895 0.050000 100.0 100.0 100.0 100.0 1.0 1.0 1.0 1.0 1.0 1.0 
element zeroLength 122 6060 6210 -mat 122 -dir 3 
element zeroLength 50122 6060 6210 -mat 1 1 -dir 1 2 
uniaxialMaterial IMKPeakOriented 123 144796507011.560610 0.063234 0.114995 0.999999 14829237.354931 1.200333 0.050000 0.063234 0.114995 0.999999 14829237.354931 1.200333 0.050000 100.0 100.0 100.0 100.0 1.0 1.0 1.0 1.0 1.0 1.0 
element zeroLength 123 6211 6001 -mat 123 -dir 3 
element zeroLength 50123 6211 6001 -mat 1 1 -dir 1 2 
uniaxialMaterial IMKPeakOriented 124 144796507011.560610 0.063234 0.114995 0.999999 14829237.354931 1.200333 0.050000 0.063234 0.114995 0.999999 14829237.354931 1.200333 0.050000 100.0 100.0 100.0 100.0 1.0 1.0 1.0 1.0 1.0 1.0 
element zeroLength 124 6062 6212 -mat 124 -dir 3 
element zeroLength 50124 6062 6212 -mat 1 1 -dir 1 2 
uniaxialMaterial IMKPeakOriented 125 76327715567.968109 0.052875 0.114852 0.999999 9689595.331694 1.209983 0.050000 0.052875 0.114852 0.999999 12291435.652775 1.209983 0.050000 100.0 100.0 100.0 100.0 1.0 1.0 1.0 1.0 1.0 1.0 
element zeroLength 125 6213 6063 -mat 125 -dir 3 
element zeroLength 50125 6213 6063 -mat 1 1 -dir 1 2 
uniaxialMaterial IMKPeakOriented 126 76327715567.968109 0.052875 0.114852 0.999999 9689595.331694 1.209983 0.050000 0.052875 0.114852 0.999999 12291435.652775 1.209983 0.050000 100.0 100.0 100.0 100.0 1.0 1.0 1.0 1.0 1.0 1.0 
element zeroLength 126 6065 6214 -mat 126 -dir 3 
element zeroLength 50126 6065 6214 -mat 1 1 -dir 1 2 
uniaxialMaterial IMKPeakOriented 127 171325537558.907100 0.065488 0.115246 0.999999 19158646.930033 1.183874 0.050000 0.065488 0.115246 0.999999 19158646.930033 1.183874 0.050000 100.0 100.0 100.0 100.0 1.0 1.0 1.0 1.0 1.0 1.0 
element zeroLength 127 6215 6002 -mat 127 -dir 3 
element zeroLength 50127 6215 6002 -mat 1 1 -dir 1 2 
uniaxialMaterial IMKPeakOriented 128 171325537558.907100 0.065488 0.115246 0.999999 19158646.930033 1.183874 0.050000 0.065488 0.115246 0.999999 19158646.930033 1.183874 0.050000 100.0 100.0 100.0 100.0 1.0 1.0 1.0 1.0 1.0 1.0 
element zeroLength 128 6064 6216 -mat 128 -dir 3 
element zeroLength 50128 6064 6216 -mat 1 1 -dir 1 2 
# ... 444 like lines cut
