puts "Building Model..." 
model basic -ndm 2 -ndf 3 
node 6000 0.000000 0.000000 
node 6001 0.000000 180.000000 
node 6002 240.000000 180.000000 
node 6003 240.000000 0.000000 
node 6004 480.000000 180.000000 
node 6005 480.000000 0.000000 
node 6006 720.000000 180.000000 
node 6007 720.000000 0.000000 
node 6008 0.000000 336.000000 
node 6009 240.000000 336.000000 
node 6010 480.000000 336.000000 
node 6011 720.000000 336.000000 
node 6012 0.000000 492.000000 
node 6013 240.000000 492.000000 
node 6014 480.000000 492.000000 
node 6015 720.000000 492.000000 
node 6016 0.000000 648.000000 
node 6017 240.000000 648.000000 
node 6018 480.000000 648.000000 
node 6019 720.000000 648.000000 
# ... 105 like lines cut
fix 6000 1 1 1 
fix 6001 0 0 0 
fix 6002 0 0 0 
fix 6003 1 1 1 
fix 6004 0 0 0 
fix 6005 1 1 1 
fix 6006 0 0 0 
fix 6007 1 1 1 
fix 6008 0 0 0 
fix 6009 0 0 0 
fix 6010 0 0 0 
fix 6011 0 0 0 
fix 6012 0 0 0 
fix 6013 0 0 0 
fix 6014 0 0 0 
fix 6015 0 0 0 
fix 6016 0 0 0 
fix 6017 0 0 0 
fix 6018 0 0 0 
fix 6019 0 0 0 
# ... 105 like lines cut
mass 6000 0.194301 0.194301 0. 
mass 6001 295.336788 295.336788 0. 
mass 6002 590.673575 590.673575 0. 
mass 6003 0.194301 0.194301 0. 
mass 6004 590.673575 590.673575 0. 
mass 6005 0.194301 0.194301 0. 
mass 6006 295.336788 295.336788 0. 
mass 6007 0.194301 0.194301 0. 
mass 6008 295.336788 295.336788 0. 
mass 6009 590.673575 590.673575 0. 
mass 6010 590.673575 590.673575 0. 
mass 6011 295.336788 295.336788 0. 
mass 6012 295.336788 295.336788 0. 
mass 6013 590.673575 590.673575 0. 
mass 6014 590.673575 590.673575 0. 
mass 6015 295.336788 295.336788 0. 
mass 6016 229.274611 229.274611 0. 
mass 6017 458.549223 458.549223 0. 
mass 6018 458.549223 458.549223 0. 
mass 6019 229.274611 229.274611 0. 
# ... 105 like lines cut
geomTransf PDelta 1 
geomTransf PDelta 2 
element elasticBeamColumn 1 6069 6070 900.000000 4768962.151244 51975.000000 1 
element elasticBeamColumn 2 6071 6072 720.000000 4030508.652763 37910.945736 2 
element elasticBeamColumn 3 6073 6074 900.000000 4768962.151244 51975.000000 1 
element elasticBeamColumn 4 6075 6076 720.000000 4030508.652763 37910.945736 2 
element elasticBeamColumn 5 6077 6078 900.000000 4768962.151244 51975.000000 1 
element elasticBeamColumn 6 6079 6080 720.000000 4030508.652763 37910.945736 2 
element elasticBeamColumn 7 6081 6082 900.000000 4768962.151244 51975.000000 1 
element elasticBeamColumn 8 6083 6084 900.000000 4768962.151244 51975.000000 1 
element elasticBeamColumn 9 6085 6086 720.000000 4030508.652763 37910.945736 2 
element elasticBeamColumn 10 6087 6088 900.000000 4768962.151244 51975.000000 1 
element elasticBeamColumn 11 6089 6090 720.000000 4030508.652763 37910.945736 2 
element elasticBeamColumn 12 6091 6092 900.000000 4768962.151244 51975.000000 1 
element elasticBeamColumn 13 6093 6094 720.000000 4030508.652763 37910.945736 2 
element elasticBeamColumn 14 6095 6096 900.000000 4768962.151244 51975.000000 1 
element elasticBeamColumn 15 6097 6098 900.000000 4768962.151244 51975.000000 1 
element elasticBeamColumn 16 6099 6100 576.000000 4030508.652763 19581.491248 2 
element elasticBeamColumn 17 6101 6102 900.000000 4768962.151244 51975.000000 1 
element elasticBeamColumn 18 6103 6104 576.000000 4030508.652763 19581.491248 2 
element elasticBeamColumn 19 6105 6106 900.000000 4768962.151244 51975.000000 1 
element elasticBeamColumn 20 6107 6108 576.000000 4030508.652763 19581.491248 2 
# ... 16 like lines cut
uniaxialMaterial Elastic 1 999999999. 
uniaxialMaterial Elastic 222222 999999999999. 
uniaxialMaterial Elastic 2 999999999999. 
node 40001 0.000000 165.000000 
element elasticBeamColumn 1000002 40001 6021 720.000000 4030508.652763 24125.147287 2 
element elasticBeamColumn 1000003 6020 40001 1000. 99999999. 200000. 1 
element elasticBeamColumn 1000004 40001 6001 1000. 99999999. 200000. 1 
node 40002 240.000000 165.000000 
element elasticBeamColumn 2000001 6023 40002 720.000000 4030508.652763 24125.147287 2 
element elasticBeamColumn 2000002 40002 6024 720.000000 4030508.652763 24125.147287 2 
element elasticBeamColumn 2000003 6022 40002 1000. 99999999. 200000. 1 
element elasticBeamColumn 2000004 40002 6002 1000. 99999999. 200000. 1 
node 40003 480.000000 165.000000 
element elasticBeamColumn 3000001 6026 40003 720.000000 4030508.652763 24125.147287 2 
element elasticBeamColumn 3000002 40003 6027 720.000000 4030508.652763 24125.147287 2 
element elasticBeamColumn 3000003 6025 40003 1000. 99999999. 200000. 1 
element elasticBeamColumn 3000004 40003 6004 1000. 99999999. 200000. 1 
element elasticBeamColumn 4000001 6029 6065 720.000000 4030508.652763 24125.147287 2 
element elasticBeamColumn 4000003 6028 6065 1000. 99999999. 200000. 1 
element elasticBeamColumn 4000004 6065 6006 1000. 99999999. 200000. 1 
node 40005 0.000000 321.000000 
element elasticBeamColumn 5000002 40005 6031 720.000000 4030508.652763 24125.147287 2 
element elasticBeamColumn 5000003 6030 40005 1000. 99999999. 200000. 1 
element elasticBeamColumn 5000004 40005 6008 1000. 99999999. 200000. 1 
node 40006 240.000000 321.000000 
element elasticBeamColumn 6000001 6033 40006 720.000000 4030508.652763 24125.147287 2 
element elasticBeamColumn 6000002 40006 6034 720.000000 4030508.652763 24125.147287 2 
element elasticBeamColumn 6000003 6032 40006 1000. 99999999. 200000. 1 
element elasticBeamColumn 6000004 40006 6009 1000. 99999999. 200000. 1 
node 40007 480.000000 321.000000 
element elasticBeamColumn 7000001 6036 40007 720.000000 4030508.652763 24125.147287 2 
element elasticBeamColumn 7000002 40007 6037 720.000000 4030508.652763 24125.147287 2 
element elasticBeamColumn 7000003 6035 40007 1000. 99999999. 200000. 1 
element elasticBeamColumn 7000004 40007 6010 1000. 99999999. 200000. 1 
element elasticBeamColumn 8000001 6039 6066 720.000000 4030508.652763 24125.147287 2 
element elasticBeamColumn 8000003 6038 6066 1000. 99999999. 200000. 1 
element elasticBeamColumn 8000004 6066 6011 1000. 99999999. 200000. 1 
node 40009 0.000000 480.000000 
element elasticBeamColumn 9000002 40009 6041 576.000000 4030508.652763 12460.948976 2 
element elasticBeamColumn 9000003 6040 40009 1000. 99999999. 200000. 1 
element elasticBeamColumn 9000004 40009 6012 1000. 99999999. 200000. 1 
node 40010 240.000000 480.000000 
element elasticBeamColumn 10000001 6043 40010 576.000000 4030508.652763 12460.948976 2 
element elasticBeamColumn 10000002 40010 6044 576.000000 4030508.652763 12460.948976 2 
element elasticBeamColumn 10000003 6042 40010 1000. 99999999. 200000. 1 
element elasticBeamColumn 10000004 40010 6013 1000. 99999999. 200000. 1 
node 40011 480.000000 480.000000 
element elasticBeamColumn 11000001 6046 40011 576.000000 4030508.652763 12460.948976 2 
element elasticBeamColumn 11000002 40011 6047 576.000000 4030508.652763 12460.948976 2 
element elasticBeamColumn 11000003 6045 40011 1000. 99999999. 200000. 1 
element elasticBeamColumn 11000004 40011 6014 1000. 99999999. 200000. 1 
element elasticBeamColumn 12000001 6049 6067 576.000000 4030508.652763 12460.948976 2 
element elasticBeamColumn 12000003 6048 6067 1000. 99999999. 200000. 1 
element elasticBeamColumn 12000004 6067 6015 1000. 99999999. 200000. 1 
node 40013 0.000000 636.000000 
element elasticBeamColumn 13000002 40013 6051 576.000000 4030508.652763 12460.948976 2 
element elasticBeamColumn 13000003 6050 40013 1000. 99999999. 200000. 1 
element elasticBeamColumn 13000004 40013 6016 1000. 99999999. 200000. 1 
node 40014 240.000000 636.000000 
element elasticBeamColumn 14000001 6053 40014 576.000000 4030508.652763 12460.948976 2 
element elasticBeamColumn 14000002 40014 6054 576.000000 4030508.652763 12460.948976 2 
element elasticBeamColumn 14000003 6052 40014 1000. 99999999. 200000. 1 
element elasticBeamColumn 14000004 40014 6017 1000. 99999999. 200000. 1 
node 40015 480.000000 636.000000 
element elasticBeamColumn 15000001 6056 40015 576.000000 4030508.652763 12460.948976 2 
element elasticBeamColumn 15000002 40015 6057 576.000000 4030508.652763 12460.948976 2 
element elasticBeamColumn 15000003 6055 40015 1000. 99999999. 200000. 1 
element elasticBeamColumn 15000004 40015 6018 1000. 99999999. 200000. 1 
element elasticBeamColumn 16000001 6059 6068 576.000000 4030508.652763 12460.948976 2 
element elasticBeamColumn 16000003 6058 6068 1000. 99999999. 200000. 1 
element elasticBeamColumn 16000004 6068 6019 1000. 99999999. 200000. 1 
uniaxialMaterial IMKPeakOriented 37 99146723124.367523 0.088878 0.115120 0.999999 17042146.111879 1.192044 0.050000 0.088878 0.115120 0.999999 17042146.111879 1.192044 0.050000 100.0 100.0 100.0 100.0 1.0 1.0 1.0 1.0 1.0 1.0 
element zeroLength 37 6069 6000 -mat 37 -dir 3 
element zeroLength 50037 6069 6000 -mat 1 1 -dir 1 2 
uniaxialMaterial IMKPeakOriented 38 99146723124.367523 0.088878 0.115120 0.999999 17042146.111879 1.192044 0.050000 0.088878 0.115120 0.999999 17042146.111879 1.192044 0.050000 100.0 100.0 100.0 100.0 1.0 1.0 1.0 1.0 1.0 1.0 
element zeroLength 38 6020 6070 -mat 38 -dir 3 
element zeroLength 50038 6020 6070 -mat 1 1 -dir 1 2 
uniaxialMaterial IMKPeakOriented 39 43657255664.325249 0.054044 0.114852 0.999999 7947589.687661 1.209983 0.050000 0.054044 0.114852 0.999999 10014007.653433 1.209983 0.050000 100.0 100.0 100.0 100.0 1.0 1.0 1.0 1.0 1.0 1.0 
element zeroLength 39 6071 6021 -mat 39 -dir 3 
element zeroLength 50039 6071 6021 -mat 1 1 -dir 1 2 
uniaxialMaterial IMKPeakOriented 40 43657255664.325249 0.054044 0.114852 0.999999 7947589.687661 1.209983 0.050000 0.054044 0.114852 0.999999 10014007.653433 1.209983 0.050000 100.0 100.0 100.0 100.0 1.0 1.0 1.0 1.0 1.0 1.0 
element zeroLength 40 6023 6072 -mat 40 -dir 3 
element zeroLength 50040 6023 6072 -mat 1 1 -dir 1 2 
uniaxialMaterial IMKPeakOriented 41 99146723124.367523 0.086088 0.115139 0.999999 16388127.170603 1.190810 0.050000 0.086088 0.115139 0.999999 16388127.170603 1.190810 0.050000 100.0 100.0 100.0 100.0 1.0 1.0 1.0 1.0 1.0 1.0 
element zeroLength 41 6073 6003 -mat 41 -dir 3 
element zeroLength 50041 6073 6003 -mat 1 1 -dir 1 2 
uniaxialMaterial IMKPeakOriented 42 99146723124.367523 0.086088 0.115139 0.999999 16388127.170603 1.190810 0.050000 0.086088 0.115139 0.999999 16388127.170603 1.190810 0.050000 100.0 100.0 100.0 100.0 1.0 1.0 1.0 1.0 1.0 1.0 
element zeroLength 42 6022 6074 -mat 42 -dir 3 
element zeroLength 50042 6022 6074 -mat 1 1 -dir 1 2 
uniaxialMaterial IMKPeakOriented 43 43657255664.325249 0.054044 0.114852 0.999999 7947589.687661 1.209983 0.050000 0.054044 0.114852 0.999999 10014007.653433 1.209983 0.050000 100.0 100.0 100.0 100.0 1.0 1.0 1.0 1.0 1.0 1.0 
element zeroLength 43 6075 6024 -mat 43 -dir 3 
element zeroLength 50043 6075 6024 -mat 1 1 -dir 1 2 
uniaxialMaterial IMKPeakOriented 44 43657255664.325249 0.054044 0.114852 0.999999 7947589.687661 1.209983 0.050000 0.054044 0.114852 0.999999 10014007.653433 1.209983 0.050000 100.0 100.0 100.0 100.0 1.0 1.0 1.0 1.0 1.0 1.0 
element zeroLength 44 6026 6076 -mat 44 -dir 3 
element zeroLength 50044 6026 6076 -mat 1 1 -dir 1 2 
uniaxialMaterial IMKPeakOriented 45 99146723124.367523 0.086088 0.115139 0.999999 16388127.170603 1.190810 0.050000 0.086088 0.115139 0.999999 16388127.170603 1.190810 0.050000 100.0 100.0 100.0 100.0 1.0 1.0 1.0 1.0 1.0 1.0 
element zeroLength 45 6077 6005 -mat 45 -dir 3 
element zeroLength 50045 6077 6005 -mat 1 1 -dir 1 2 
uniaxialMaterial IMKPeakOriented 46 99146723124.367523 0.086088 0.115139 0.999999 16388127.170603 1.190810 0.050000 0.086088 0.115139 0.999999 16388127.170603 1.190810 0.050000 100.0 100.0 100.0 100.0 1.0 1.0 1.0 1.0 1.0 1.0 
element zeroLength 46 6025 6078 -mat 46 -dir 3 
element zeroLength 50046 6025 6078 -mat 1 1 -dir 1 2 
uniaxialMaterial IMKPeakOriented 47 43657255664.325249 0.054044 0.114852 0.999999 7947589.687661 1.209983 0.050000 0.054044 0.114852 0.999999 10014007.653433 1.209983 0.050000 100.0 100.0 100.0 100.0 1.0 1.0 1.0 1.0 1.0 1.0 
element zeroLength 47 6079 6027 -mat 47 -dir 3 
element zeroLength 50047 6079 6027 -mat 1 1 -dir 1 2 
uniaxialMaterial IMKPeakOriented 48 43657255664.325249 0.054044 0.114852 0.999999 7947589.687661 1.209983 0.050000 0.054044 0.114852 0.999999 10014007.653433 1.209983 0.050000 100.0 100.0 100.0 100.0 1.0 1.0 1.0 1.0 1.0 1.0 
element zeroLength 48 6029 6080 -mat 48 -dir 3 
element zeroLength 50048 6029 6080 -mat 1 1 -dir 1 2 
uniaxialMaterial IMKPeakOriented 49 99146723124.367523 0.088878 0.115120 0.999999 17042146.111879 1.192044 0.050000 0.088878 0.115120 0.999999 17042146.111879 1.192044 0.050000 100.0 100.0 100.0 100.0 1.0 1.0 1.0 1.0 1.0 1.0 
element zeroLength 49 6081 6007 -mat 49 -dir 3 
element zeroLength 50049 6081 6007 -mat 1 1 -dir 1 2 
uniaxialMaterial IMKPeakOriented 50 99146723124.367523 0.088878 0.115120 0.999999 17042146.111879 1.192044 0.050000 0.088878 0.115120 0.999999 17042146.111879 1.192044 0.050000 100.0 100.0 100.0 100.0 1.0 1.0 1.0 1.0 1.0 1.0 
element zeroLength 50 6028 6082 -mat 50 -dir 3 
element zeroLength 50050 6028 6082 -mat 1 1 -dir 1 2 
uniaxialMaterial IMKPeakOriented 51 118031813243.294690 0.082867 0.115111 0.999999 9826924.297659 1.192651 0.050000 0.082867 0.115111 0.999999 9826924.297659 1.192651 0.050000 100.0 100.0 100.0 100.0 1.0 1.0 1.0 1.0 1.0 1.0 
element zeroLength 51 6083 6001 -mat 51 -dir 3 
element zeroLength 50051 6083 6001 -mat 1 1 -dir 1 2 
uniaxialMaterial IMKPeakOriented 52 118031813243.294690 0.082867 0.115111 0.999999 9826924.297659 1.192651 0.050000 0.082867 0.115111 0.999999 9826924.297659 1.192651 0.050000 100.0 100.0 100.0 100.0 1.0 1.0 1.0 1.0 1.0 1.0 
element zeroLength 52 6030 6084 -mat 52 -dir 3 
element zeroLength 50052 6030 6084 -mat 1 1 -dir 1 2 
uniaxialMaterial IMKPeakOriented 53 43657255664.325249 0.060824 0.114852 0.999999 9008168.323540 1.209983 0.050000 0.060824 0.114852 0.999999 11072467.803595 1.209983 0.050000 100.0 100.0 100.0 100.0 1.0 1.0 1.0 1.0 1.0 1.0 
element zeroLength 53 6085 6031 -mat 53 -dir 3 
element zeroLength 50053 6085 6031 -mat 1 1 -dir 1 2 
uniaxialMaterial IMKPeakOriented 54 43657255664.325249 0.060824 0.114852 0.999999 9008168.323540 1.209983 0.050000 0.060824 0.114852 0.999999 11072467.803595 1.209983 0.050000 100.0 100.0 100.0 100.0 1.0 1.0 1.0 1.0 1.0 1.0 
element zeroLength 54 6033 6086 -mat 54 -dir 3 
element zeroLength 50054 6033 6086 -mat 1 1 -dir 1 2 
uniaxialMaterial IMKPeakOriented 55 118031813243.294680 0.087157 0.115125 0.999999 15862080.374105 1.191745 0.050000 0.087157 0.115125 0.999999 15862080.374105 1.191745 0.050000 100.0 100.0 100.0 100.0 1.0 1.0 1.0 1.0 1.0 1.0 
element zeroLength 55 6087 6002 -mat 55 -dir 3 
element zeroLength 50055 6087 6002 -mat 1 1 -dir 1 2 
uniaxialMaterial IMKPeakOriented 56 118031813243.294680 0.087157 0.115125 0.999999 15862080.374105 1.191745 0.050000 0.087157 0.115125 0.999999 15862080.374105 1.191745 0.050000 100.0 100.0 100.0 100.0 1.0 1.0 1.0 1.0 1.0 1.0 
element zeroLength 56 6032 6088 -mat 56 -dir 3 
element zeroLength 50056 6032 6088 -mat 1 1 -dir 1 2 
# ... 108 like lines cut
