puts "Building Model..." 
model basic -ndm 2 -ndf 3 
node 6000 0.000000 0.000000 
node 6001 0.000000 180.000000 
node 6002 240.000000 180.000000 
node 6003 240.000000 0.000000 
node 6004 480.000000 180.000000 
node 6005 480.000000 0.000000 
node 6006 720.000000 180.000000 
node 6007 720.000000 0.000000 
node 6008 0.000000 336.000000 
node 6009 240.000000 336.000000 
node 6010 480.000000 336.000000 
node 6011 720.000000 336.000000 
node 6012 0.000000 492.000000 
node 6013 240.000000 492.000000 
node 6014 480.000000 492.000000 
node 6015 720.000000 492.000000 
node 6016 0.000000 648.000000 
node 6017 240.000000 648.000000 
node 6018 480.000000 648.000000 
node 6019 720.000000 648.000000 
# ... 585 like lines cut
fix 6000 1 1 1 
fix 6001 0 0 0 
fix 6002 0 0 0 
fix 6003 1 1 1 
fix 6004 0 0 0 
fix 6005 1 1 1 
fix 6006 0 0 0 
fix 6007 1 1 1 
fix 6008 0 0 0 
fix 6009 0 0 0 
fix 6010 0 0 0 
fix 6011 0 0 0 
fix 6012 0 0 0 
fix 6013 0 0 0 
fix 6014 0 0 0 
fix 6015 0 0 0 
fix 6016 0 0 0 
fix 6017 0 0 0 
fix 6018 0 0 0 
fix 6019 0 0 0 
# ... 585 like lines cut
mass 6000 0.194301 0.194301 0. 
mass 6001 295.336788 295.336788 0. 
mass 6002 590.673575 590.673575 0. 
mass 6003 0.194301 0.194301 0. 
mass 6004 590.673575 590.673575 0. 
mass 6005 0.194301 0.194301 0. 
mass 6006 295.336788 295.336788 0. 
mass 6007 0.194301 0.194301 0. 
mass 6008 295.336788 295.336788 0. 
mass 6009 590.673575 590.673575 0. 
mass 6010 590.673575 590.673575 0. 
mass 6011 295.336788 295.336788 0. 
mass 6012 295.336788 295.336788 0. 
mass 6013 590.673575 590.673575 0. 
mass 6014 590.673575 590.673575 0. 
mass 6015 295.336788 295.336788 0. 
mass 6016 295.336788 295.336788 0. 
mass 6017 590.673575 590.673575 0. 
mass 6018 590.673575 590.673575 0. 
mass 6019 295.336788 295.336788 0. 
# ... 585 like lines cut
geomTransf PDelta 1 
geomTransf PDelta 2 
element elasticBeamColumn 1 6325 6326 1764.000000 4768962.151244 199667.160000 1 
element elasticBeamColumn 2 6327 6328 1512.000000 4030508.652763 141929.162044 2 
element elasticBeamColumn 3 6329 6330 1764.000000 4768962.151244 199667.160000 1 
element elasticBeamColumn 4 6331 6332 1512.000000 4030508.652763 141929.162044 2 
element elasticBeamColumn 5 6333 6334 1764.000000 4768962.151244 199667.160000 1 
element elasticBeamColumn 6 6335 6336 1512.000000 4030508.652763 141929.162044 2 
element elasticBeamColumn 7 6337 6338 1764.000000 4768962.151244 199667.160000 1 
element elasticBeamColumn 8 6339 6340 1764.000000 4768962.151244 199667.160000 1 
element elasticBeamColumn 9 6341 6342 1512.000000 4030508.652763 141929.162044 2 
element elasticBeamColumn 10 6343 6344 1764.000000 4768962.151244 199667.160000 1 
element elasticBeamColumn 11 6345 6346 1512.000000 4030508.652763 141929.162044 2 
element elasticBeamColumn 12 6347 6348 1764.000000 4768962.151244 199667.160000 1 
element elasticBeamColumn 13 6349 6350 1512.000000 4030508.652763 141929.162044 2 
element elasticBeamColumn 14 6351 6352 1764.000000 4768962.151244 199667.160000 1 
element elasticBeamColumn 15 6353 6354 1512.000000 4768962.151244 171143.280000 1 
element elasticBeamColumn 16 6355 6356 1260.000000 4030508.652763 121249.984483 2 
element elasticBeamColumn 17 6357 6358 1512.000000 4768962.151244 171143.280000 1 
element elasticBeamColumn 18 6359 6360 1260.000000 4030508.652763 121249.984483 2 
element elasticBeamColumn 19 6361 6362 1512.000000 4768962.151244 171143.280000 1 
element elasticBeamColumn 20 6363 6364 1260.000000 4030508.652763 121249.984483 2 
# ... 160 like lines cut
uniaxialMaterial Elastic 1 999999999. 
uniaxialMaterial Elastic 222222 999999999999. 
uniaxialMaterial Elastic 2 999999999999. 
node 40001 0.000000 159.000000 
element elasticBeamColumn 1000002 40001 6085 1512.000000 4030508.652763 90318.557664 2 
element elasticBeamColumn 1000003 6084 40001 1000. 99999999. 200000. 1 
element elasticBeamColumn 1000004 40001 6001 1000. 99999999. 200000. 1 
node 40002 240.000000 159.000000 
element elasticBeamColumn 2000001 6087 40002 1512.000000 4030508.652763 90318.557664 2 
element elasticBeamColumn 2000002 40002 6088 1512.000000 4030508.652763 90318.557664 2 
element elasticBeamColumn 2000003 6086 40002 1000. 99999999. 200000. 1 
element elasticBeamColumn 2000004 40002 6002 1000. 99999999. 200000. 1 
node 40003 480.000000 159.000000 
element elasticBeamColumn 3000001 6090 40003 1512.000000 4030508.652763 90318.557664 2 
element elasticBeamColumn 3000002 40003 6091 1512.000000 4030508.652763 90318.557664 2 
element elasticBeamColumn 3000003 6089 40003 1000. 99999999. 200000. 1 
element elasticBeamColumn 3000004 40003 6004 1000. 99999999. 200000. 1 
element elasticBeamColumn 4000001 6093 6305 1512.000000 4030508.652763 90318.557664 2 
element elasticBeamColumn 4000003 6092 6305 1000. 99999999. 200000. 1 
element elasticBeamColumn 4000004 6305 6006 1000. 99999999. 200000. 1 
node 40005 0.000000 315.000000 
element elasticBeamColumn 5000002 40005 6095 1512.000000 4030508.652763 90318.557664 2 
element elasticBeamColumn 5000003 6094 40005 1000. 99999999. 200000. 1 
element elasticBeamColumn 5000004 40005 6008 1000. 99999999. 200000. 1 
node 40006 240.000000 315.000000 
element elasticBeamColumn 6000001 6097 40006 1512.000000 4030508.652763 90318.557664 2 
element elasticBeamColumn 6000002 40006 6098 1512.000000 4030508.652763 90318.557664 2 
element elasticBeamColumn 6000003 6096 40006 1000. 99999999. 200000. 1 
element elasticBeamColumn 6000004 40006 6009 1000. 99999999. 200000. 1 
node 40007 480.000000 315.000000 
element elasticBeamColumn 7000001 6100 40007 1512.000000 4030508.652763 90318.557664 2 
element elasticBeamColumn 7000002 40007 6101 1512.000000 4030508.652763 90318.557664 2 
element elasticBeamColumn 7000003 6099 40007 1000. 99999999. 200000. 1 
element elasticBeamColumn 7000004 40007 6010 1000. 99999999. 200000. 1 
element elasticBeamColumn 8000001 6103 6306 1512.000000 4030508.652763 90318.557664 2 
element elasticBeamColumn 8000003 6102 6306 1000. 99999999. 200000. 1 
element elasticBeamColumn 8000004 6306 6011 1000. 99999999. 200000. 1 
node 40009 0.000000 471.000000 
element elasticBeamColumn 9000002 40009 6105 1260.000000 4030508.652763 77159.081034 2 
element elasticBeamColumn 9000003 6104 40009 1000. 99999999. 200000. 1 
element elasticBeamColumn 9000004 40009 6012 1000. 99999999. 200000. 1 
node 40010 240.000000 471.000000 
element elasticBeamColumn 10000001 6107 40010 1260.000000 4030508.652763 77159.081034 2 
element elasticBeamColumn 10000002 40010 6108 1260.000000 4030508.652763 77159.081034 2 
element elasticBeamColumn 10000003 6106 40010 1000. 99999999. 200000. 1 
element elasticBeamColumn 10000004 40010 6013 1000. 99999999. 200000. 1 
node 40011 480.000000 471.000000 
element elasticBeamColumn 11000001 6110 40011 1260.000000 4030508.652763 77159.081034 2 
element elasticBeamColumn 11000002 40011 6111 1260.000000 4030508.652763 77159.081034 2 
element elasticBeamColumn 11000003 6109 40011 1000. 99999999. 200000. 1 
element elasticBeamColumn 11000004 40011 6014 1000. 99999999. 200000. 1 
element elasticBeamColumn 12000001 6113 6307 1260.000000 4030508.652763 77159.081034 2 
element elasticBeamColumn 12000003 6112 6307 1000. 99999999. 200000. 1 
element elasticBeamColumn 12000004 6307 6015 1000. 99999999. 200000. 1 
node 40013 0.000000 627.000000 
element elasticBeamColumn 13000002 40013 6115 1260.000000 4030508.652763 77159.081034 2 
element elasticBeamColumn 13000003 6114 40013 1000. 99999999. 200000. 1 
element elasticBeamColumn 13000004 40013 6016 1000. 99999999. 200000. 1 
node 40014 240.000000 627.000000 
element elasticBeamColumn 14000001 6117 40014 1260.000000 4030508.652763 77159.081034 2 
element elasticBeamColumn 14000002 40014 6118 1260.000000 4030508.652763 77159.081034 2 
element elasticBeamColumn 14000003 6116 40014 1000. 99999999. 200000. 1 
element elasticBeamColumn 14000004 40014 6017 1000. 99999999. 200000. 1 
node 40015 480.000000 627.000000 
element elasticBeamColumn 15000001 6120 40015 1260.000000 4030508.652763 77159.081034 2 
element elasticBeamColumn 15000002 40015 6121 1260.000000 4030508.652763 77159.081034 2 
element elasticBeamColumn 15000003 6119 40015 1000. 99999999. 200000. 1 
element elasticBeamColumn 15000004 40015 6018 1000. 99999999. 200000. 1 
element elasticBeamColumn 16000001 6123 6308 1260.000000 4030508.652763 77159.081034 2 
element elasticBeamColumn 16000003 6122 6308 1000. 99999999. 200000. 1 
element elasticBeamColumn 16000004 6308 6019 1000. 99999999. 200000. 1 
node 40017 0.000000 783.000000 
element elasticBeamColumn 17000002 40017 6125 1260.000000 4030508.652763 77159.081034 2 
element elasticBeamColumn 17000003 6124 40017 1000. 99999999. 200000. 1 
element elasticBeamColumn 17000004 40017 6020 1000. 99999999. 200000. 1 
node 40018 240.000000 783.000000 
element elasticBeamColumn 18000001 6127 40018 1260.000000 4030508.652763 77159.081034 2 
element elasticBeamColumn 18000002 40018 6128 1260.000000 4030508.652763 77159.081034 2 
element elasticBeamColumn 18000003 6126 40018 1000. 99999999. 200000. 1 
element elasticBeamColumn 18000004 40018 6021 1000. 99999999. 200000. 1 
node 40019 480.000000 783.000000 
element elasticBeamColumn 19000001 6130 40019 1260.000000 4030508.652763 77159.081034 2 
element elasticBeamColumn 19000002 40019 6131 1260.000000 4030508.652763 77159.081034 2 
element elasticBeamColumn 19000003 6129 40019 1000. 99999999. 200000. 1 
element elasticBeamColumn 19000004 40019 6022 1000. 99999999. 200000. 1 
element elasticBeamColumn 20000001 6133 6309 1260.000000 4030508.652763 77159.081034 2 
element elasticBeamColumn 20000003 6132 6309 1000. 99999999. 200000. 1 
element elasticBeamColumn 20000004 6309 6023 1000. 99999999. 200000. 1 
node 40021 0.000000 939.000000 
element elasticBeamColumn 21000002 40021 6135 1260.000000 4030508.652763 77159.081034 2 
element elasticBeamColumn 21000003 6134 40021 1000. 99999999. 200000. 1 
element elasticBeamColumn 21000004 40021 6024 1000. 99999999. 200000. 1 
node 40022 240.000000 939.000000 
element elasticBeamColumn 22000001 6137 40022 1260.000000 4030508.652763 77159.081034 2 
element elasticBeamColumn 22000002 40022 6138 1260.000000 4030508.652763 77159.081034 2 
element elasticBeamColumn 22000003 6136 40022 1000. 99999999. 200000. 1 
element elasticBeamColumn 22000004 40022 6025 1000. 99999999. 200000. 1 
node 40023 480.000000 939.000000 
element elasticBeamColumn 23000001 6140 40023 1260.000000 4030508.652763 77159.081034 2 
element elasticBeamColumn 23000002 40023 6141 1260.000000 4030508.652763 77159.081034 2 
element elasticBeamColumn 23000003 6139 40023 1000. 99999999. 200000. 1 
element elasticBeamColumn 23000004 40023 6026 1000. 99999999. 200000. 1 
element elasticBeamColumn 24000001 6143 6310 1260.000000 4030508.652763 77159.081034 2 
element elasticBeamColumn 24000003 6142 6310 1000. 99999999. 200000. 1 
element elasticBeamColumn 24000004 6310 6027 1000. 99999999. 200000. 1 
node 40025 0.000000 1095.000000 
element elasticBeamColumn 25000002 40025 6145 1260.000000 4030508.652763 77159.081034 2 
element elasticBeamColumn 25000003 6144 40025 1000. 99999999. 200000. 1 
element elasticBeamColumn 25000004 40025 6028 1000. 99999999. 200000. 1 
node 40026 240.000000 1095.000000 
element elasticBeamColumn 26000001 6147 40026 1260.000000 4030508.652763 77159.081034 2 
element elasticBeamColumn 26000002 40026 6148 1260.000000 4030508.652763 77159.081034 2 
element elasticBeamColumn 26000003 6146 40026 1000. 99999999. 200000. 1 
element elasticBeamColumn 26000004 40026 6029 1000. 99999999. 200000. 1 
node 40027 480.000000 1095.000000 
element elasticBeamColumn 27000001 6150 40027 1260.000000 4030508.652763 77159.081034 2 
element elasticBeamColumn 27000002 40027 6151 1260.000000 4030508.652763 77159.081034 2 
element elasticBeamColumn 27000003 6149 40027 1000. 99999999. 200000. 1 
element elasticBeamColumn 27000004 40027 6030 1000. 99999999. 200000. 1 
element elasticBeamColumn 28000001 6153 6311 1260.000000 4030508.652763 77159.081034 2 
element elasticBeamColumn 28000003 6152 6311 1000. 99999999. 200000. 1 
element elasticBeamColumn 28000004 6311 6031 1000. 99999999. 200000. 1 
node 40029 0.000000 1251.000000 
element elasticBeamColumn 29000002 40029 6155 1260.000000 4030508.652763 77159.081034 2 
element elasticBeamColumn 29000003 6154 40029 1000. 99999999. 200000. 1 
element elasticBeamColumn 29000004 40029 6032 1000. 99999999. 200000. 1 
node 40030 240.000000 1251.000000 
element elasticBeamColumn 30000001 6157 40030 1260.000000 4030508.652763 77159.081034 2 
element elasticBeamColumn 30000002 40030 6158 1260.000000 4030508.652763 77159.081034 2 
element elasticBeamColumn 30000003 6156 40030 1000. 99999999. 200000. 1 
element elasticBeamColumn 30000004 40030 6033 1000. 99999999. 200000. 1 
node 40031 480.000000 1251.000000 
element elasticBeamColumn 31000001 6160 40031 1260.000000 4030508.652763 77159.081034 2 
element elasticBeamColumn 31000002 40031 6161 1260.000000 4030508.652763 77159.081034 2 
element elasticBeamColumn 31000003 6159 40031 1000. 99999999. 200000. 1 
element elasticBeamColumn 31000004 40031 6034 1000. 99999999. 200000. 1 
element elasticBeamColumn 32000001 6163 6312 1260.000000 4030508.652763 77159.081034 2 
element elasticBeamColumn 32000003 6162 6312 1000. 99999999. 200000. 1 
element elasticBeamColumn 32000004 6312 6035 1000. 99999999. 200000. 1 
node 40033 0.000000 1407.000000 
element elasticBeamColumn 33000002 40033 6165 1260.000000 4030508.652763 77159.081034 2 
element elasticBeamColumn 33000003 6164 40033 1000. 99999999. 200000. 1 
element elasticBeamColumn 33000004 40033 6036 1000. 99999999. 200000. 1 
node 40034 240.000000 1407.000000 
element elasticBeamColumn 34000001 6167 40034 1260.000000 4030508.652763 77159.081034 2 
element elasticBeamColumn 34000002 40034 6168 1260.000000 4030508.652763 77159.081034 2 
element elasticBeamColumn 34000003 6166 40034 1000. 99999999. 200000. 1 
element elasticBeamColumn 34000004 40034 6037 1000. 99999999. 200000. 1 
node 40035 480.000000 1407.000000 
element elasticBeamColumn 35000001 6170 40035 1260.000000 4030508.652763 77159.081034 2 
element elasticBeamColumn 35000002 40035 6171 1260.000000 4030508.652763 77159.081034 2 
element elasticBeamColumn 35000003 6169 40035 1000. 99999999. 200000. 1 
element elasticBeamColumn 35000004 40035 6038 1000. 99999999. 200000. 1 
element elasticBeamColumn 36000001 6173 6313 1260.000000 4030508.652763 77159.081034 2 
element elasticBeamColumn 36000003 6172 6313 1000. 99999999. 200000. 1 
element elasticBeamColumn 36000004 6313 6039 1000. 99999999. 200000. 1 
node 40037 0.000000 1563.000000 
element elasticBeamColumn 37000002 40037 6175 1260.000000 4030508.652763 77159.081034 2 
element elasticBeamColumn 37000003 6174 40037 1000. 99999999. 200000. 1 
element elasticBeamColumn 37000004 40037 6040 1000. 99999999. 200000. 1 
node 40038 240.000000 1563.000000 
element elasticBeamColumn 38000001 6177 40038 1260.000000 4030508.652763 77159.081034 2 
element elasticBeamColumn 38000002 40038 6178 1260.000000 4030508.652763 77159.081034 2 
element elasticBeamColumn 38000003 6176 40038 1000. 99999999. 200000. 1 
element elasticBeamColumn 38000004 40038 6041 1000. 99999999. 200000. 1 
node 40039 480.000000 1563.000000 
element elasticBeamColumn 39000001 6180 40039 1260.000000 4030508.652763 77159.081034 2 
element elasticBeamColumn 39000002 40039 6181 1260.000000 4030508.652763 77159.081034 2 
element elasticBeamColumn 39000003 6179 40039 1000. 99999999. 200000. 1 
element elasticBeamColumn 39000004 40039 6042 1000. 99999999. 200000. 1 
element elasticBeamColumn 40000001 6183 6314 1260.000000 4030508.652763 77159.081034 2 
element elasticBeamColumn 40000003 6182 6314 1000. 99999999. 200000. 1 
element elasticBeamColumn 40000004 6314 6043 1000. 99999999. 200000. 1 
node 40041 0.000000 1719.000000 
element elasticBeamColumn 41000002 40041 6185 1260.000000 4030508.652763 77159.081034 2 
element elasticBeamColumn 41000003 6184 40041 1000. 99999999. 200000. 1 
element elasticBeamColumn 41000004 40041 6044 1000. 99999999. 200000. 1 
node 40042 240.000000 1719.000000 
element elasticBeamColumn 42000001 6187 40042 1260.000000 4030508.652763 77159.081034 2 
element elasticBeamColumn 42000002 40042 6188 1260.000000 4030508.652763 77159.081034 2 
element elasticBeamColumn 42000003 6186 40042 1000. 99999999. 200000. 1 
element elasticBeamColumn 42000004 40042 6045 1000. 99999999. 200000. 1 
node 40043 480.000000 1719.000000 
element elasticBeamColumn 43000001 6190 40043 1260.000000 4030508.652763 77159.081034 2 
element elasticBeamColumn 43000002 40043 6191 1260.000000 4030508.652763 77159.081034 2 
element elasticBeamColumn 43000003 6189 40043 1000. 99999999. 200000. 1 
element elasticBeamColumn 43000004 40043 6046 1000. 99999999. 200000. 1 
element elasticBeamColumn 44000001 6193 6315 1260.000000 4030508.652763 77159.081034 2 
element elasticBeamColumn 44000003 6192 6315 1000. 99999999. 200000. 1 
element elasticBeamColumn 44000004 6315 6047 1000. 99999999. 200000. 1 
node 40045 0.000000 1875.000000 
element elasticBeamColumn 45000002 40045 6195 1260.000000 4030508.652763 77159.081034 2 
element elasticBeamColumn 45000003 6194 40045 1000. 99999999. 200000. 1 
element elasticBeamColumn 45000004 40045 6048 1000. 99999999. 200000. 1 
node 40046 240.000000 1875.000000 
element elasticBeamColumn 46000001 6197 40046 1260.000000 4030508.652763 77159.081034 2 
element elasticBeamColumn 46000002 40046 6198 1260.000000 4030508.652763 77159.081034 2 
element elasticBeamColumn 46000003 6196 40046 1000. 99999999. 200000. 1 
element elasticBeamColumn 46000004 40046 6049 1000. 99999999. 200000. 1 
node 40047 480.000000 1875.000000 
element elasticBeamColumn 47000001 6200 40047 1260.000000 4030508.652763 77159.081034 2 
element elasticBeamColumn 47000002 40047 6201 1260.000000 4030508.652763 77159.081034 2 
element elasticBeamColumn 47000003 6199 40047 1000. 99999999. 200000. 1 
element elasticBeamColumn 47000004 40047 6050 1000. 99999999. 200000. 1 
element elasticBeamColumn 48000001 6203 6316 1260.000000 4030508.652763 77159.081034 2 
element elasticBeamColumn 48000003 6202 6316 1000. 99999999. 200000. 1 
element elasticBeamColumn 48000004 6316 6051 1000. 99999999. 200000. 1 
node 40049 0.000000 2034.000000 
element elasticBeamColumn 49000002 40049 6205 1080.000000 4030508.652763 49139.390099 2 
element elasticBeamColumn 49000003 6204 40049 1000. 99999999. 200000. 1 
element elasticBeamColumn 49000004 40049 6052 1000. 99999999. 200000. 1 
node 40050 240.000000 2034.000000 
element elasticBeamColumn 50000001 6207 40050 1080.000000 4030508.652763 49139.390099 2 
element elasticBeamColumn 50000002 40050 6208 1080.000000 4030508.652763 49139.390099 2 
element elasticBeamColumn 50000003 6206 40050 1000. 99999999. 200000. 1 
element elasticBeamColumn 50000004 40050 6053 1000. 99999999. 200000. 1 
node 40051 480.000000 2034.000000 
element elasticBeamColumn 51000001 6210 40051 1080.000000 4030508.652763 49139.390099 2 
element elasticBeamColumn 51000002 40051 6211 1080.000000 4030508.652763 49139.390099 2 
element elasticBeamColumn 51000003 6209 40051 1000. 99999999. 200000. 1 
element elasticBeamColumn 51000004 40051 6054 1000. 99999999. 200000. 1 
element elasticBeamColumn 52000001 6213 6317 1080.000000 4030508.652763 49139.390099 2 
element elasticBeamColumn 52000003 6212 6317 1000. 99999999. 200000. 1 
element elasticBeamColumn 52000004 6317 6055 1000. 99999999. 200000. 1 
node 40053 0.000000 2190.000000 
element elasticBeamColumn 53000002 40053 6215 1080.000000 4030508.652763 49139.390099 2 
element elasticBeamColumn 53000003 6214 40053 1000. 99999999. 200000. 1 
element elasticBeamColumn 53000004 40053 6056 1000. 99999999. 200000. 1 
node 40054 240.000000 2190.000000 
element elasticBeamColumn 54000001 6217 40054 1080.000000 4030508.652763 49139.390099 2 
element elasticBeamColumn 54000002 40054 6218 1080.000000 4030508.652763 49139.390099 2 
element elasticBeamColumn 54000003 6216 40054 1000. 99999999. 200000. 1 
element elasticBeamColumn 54000004 40054 6057 1000. 99999999. 200000. 1 
node 40055 480.000000 2190.000000 
element elasticBeamColumn 55000001 6220 40055 1080.000000 4030508.652763 49139.390099 2 
element elasticBeamColumn 55000002 40055 6221 1080.000000 4030508.652763 49139.390099 2 
element elasticBeamColumn 55000003 6219 40055 1000. 99999999. 200000. 1 
element elasticBeamColumn 55000004 40055 6058 1000. 99999999. 200000. 1 
element elasticBeamColumn 56000001 6223 6318 1080.000000 4030508.652763 49139.390099 2 
element elasticBeamColumn 56000003 6222 6318 1000. 99999999. 200000. 1 
element elasticBeamColumn 56000004 6318 6059 1000. 99999999. 200000. 1 
node 40057 0.000000 2346.000000 
element elasticBeamColumn 57000002 40057 6225 1080.000000 4030508.652763 49364.024561 2 
element elasticBeamColumn 57000003 6224 40057 1000. 99999999. 200000. 1 
element elasticBeamColumn 57000004 40057 6060 1000. 99999999. 200000. 1 
node 40058 240.000000 2346.000000 
element elasticBeamColumn 58000001 6227 40058 1080.000000 4030508.652763 49364.024561 2 
element elasticBeamColumn 58000002 40058 6228 1080.000000 4030508.652763 49364.024561 2 
element elasticBeamColumn 58000003 6226 40058 1000. 99999999. 200000. 1 
element elasticBeamColumn 58000004 40058 6061 1000. 99999999. 200000. 1 
node 40059 480.000000 2346.000000 
element elasticBeamColumn 59000001 6230 40059 1080.000000 4030508.652763 49364.024561 2 
element elasticBeamColumn 59000002 40059 6231 1080.000000 4030508.652763 49364.024561 2 
element elasticBeamColumn 59000003 6229 40059 1000. 99999999. 200000. 1 
element elasticBeamColumn 59000004 40059 6062 1000. 99999999. 200000. 1 
element elasticBeamColumn 60000001 6233 6319 1080.000000 4030508.652763 49364.024561 2 
element elasticBeamColumn 60000003 6232 6319 1000. 99999999. 200000. 1 
element elasticBeamColumn 60000004 6319 6063 1000. 99999999. 200000. 1 
node 40061 0.000000 2502.000000 
element elasticBeamColumn 61000002 40061 6235 1080.000000 4030508.652763 49364.024561 2 
element elasticBeamColumn 61000003 6234 40061 1000. 99999999. 200000. 1 
element elasticBeamColumn 61000004 40061 6064 1000. 99999999. 200000. 1 
node 40062 240.000000 2502.000000 
element elasticBeamColumn 62000001 6237 40062 1080.000000 4030508.652763 49364.024561 2 
element elasticBeamColumn 62000002 40062 6238 1080.000000 4030508.652763 49364.024561 2 
element elasticBeamColumn 62000003 6236 40062 1000. 99999999. 200000. 1 
element elasticBeamColumn 62000004 40062 6065 1000. 99999999. 200000. 1 
node 40063 480.000000 2502.000000 
element elasticBeamColumn 63000001 6240 40063 1080.000000 4030508.652763 49364.024561 2 
element elasticBeamColumn 63000002 40063 6241 1080.000000 4030508.652763 49364.024561 2 
element elasticBeamColumn 63000003 6239 40063 1000. 99999999. 200000. 1 
element elasticBeamColumn 63000004 40063 6066 1000. 99999999. 200000. 1 
element elasticBeamColumn 64000001 6243 6320 1080.000000 4030508.652763 49364.024561 2 
element elasticBeamColumn 64000003 6242 6320 1000. 99999999. 200000. 1 
element elasticBeamColumn 64000004 6320 6067 1000. 99999999. 200000. 1 
node 40065 0.000000 2658.000000 
element elasticBeamColumn 65000002 40065 6245 1080.000000 4030508.652763 49364.024561 2 
element elasticBeamColumn 65000003 6244 40065 1000. 99999999. 200000. 1 
element elasticBeamColumn 65000004 40065 6068 1000. 99999999. 200000. 1 
node 40066 240.000000 2658.000000 
element elasticBeamColumn 66000001 6247 40066 1080.000000 4030508.652763 49364.024561 2 
element elasticBeamColumn 66000002 40066 6248 1080.000000 4030508.652763 49364.024561 2 
element elasticBeamColumn 66000003 6246 40066 1000. 99999999. 200000. 1 
element elasticBeamColumn 66000004 40066 6069 1000. 99999999. 200000. 1 
node 40067 480.000000 2658.000000 
element elasticBeamColumn 67000001 6250 40067 1080.000000 4030508.652763 49364.024561 2 
element elasticBeamColumn 67000002 40067 6251 1080.000000 4030508.652763 49364.024561 2 
element elasticBeamColumn 67000003 6249 40067 1000. 99999999. 200000. 1 
element elasticBeamColumn 67000004 40067 6070 1000. 99999999. 200000. 1 
element elasticBeamColumn 68000001 6253 6321 1080.000000 4030508.652763 49364.024561 2 
element elasticBeamColumn 68000003 6252 6321 1000. 99999999. 200000. 1 
element elasticBeamColumn 68000004 6321 6071 1000. 99999999. 200000. 1 
node 40069 0.000000 2814.000000 
element elasticBeamColumn 69000002 40069 6255 1080.000000 4030508.652763 49364.024561 2 
element elasticBeamColumn 69000003 6254 40069 1000. 99999999. 200000. 1 
element elasticBeamColumn 69000004 40069 6072 1000. 99999999. 200000. 1 
node 40070 240.000000 2814.000000 
element elasticBeamColumn 70000001 6257 40070 1080.000000 4030508.652763 49364.024561 2 
element elasticBeamColumn 70000002 40070 6258 1080.000000 4030508.652763 49364.024561 2 
element elasticBeamColumn 70000003 6256 40070 1000. 99999999. 200000. 1 
element elasticBeamColumn 70000004 40070 6073 1000. 99999999. 200000. 1 
node 40071 480.000000 2814.000000 
element elasticBeamColumn 71000001 6260 40071 1080.000000 4030508.652763 49364.024561 2 
element elasticBeamColumn 71000002 40071 6261 1080.000000 4030508.652763 49364.024561 2 
element elasticBeamColumn 71000003 6259 40071 1000. 99999999. 200000. 1 
element elasticBeamColumn 71000004 40071 6074 1000. 99999999. 200000. 1 
element elasticBeamColumn 72000001 6263 6322 1080.000000 4030508.652763 49364.024561 2 
element elasticBeamColumn 72000003 6262 6322 1000. 99999999. 200000. 1 
element elasticBeamColumn 72000004 6322 6075 1000. 99999999. 200000. 1 
node 40073 0.000000 2970.000000 
element elasticBeamColumn 73000002 40073 6265 1080.000000 4030508.652763 49364.024561 2 
element elasticBeamColumn 73000003 6264 40073 1000. 99999999. 200000. 1 
element elasticBeamColumn 73000004 40073 6076 1000. 99999999. 200000. 1 
node 40074 240.000000 2970.000000 
element elasticBeamColumn 74000001 6267 40074 1080.000000 4030508.652763 49364.024561 2 
element elasticBeamColumn 74000002 40074 6268 1080.000000 4030508.652763 49364.024561 2 
element elasticBeamColumn 74000003 6266 40074 1000. 99999999. 200000. 1 
element elasticBeamColumn 74000004 40074 6077 1000. 99999999. 200000. 1 
node 40075 480.000000 2970.000000 
element elasticBeamColumn 75000001 6270 40075 1080.000000 4030508.652763 49364.024561 2 
element elasticBeamColumn 75000002 40075 6271 1080.000000 4030508.652763 49364.024561 2 
element elasticBeamColumn 75000003 6269 40075 1000. 99999999. 200000. 1 
element elasticBeamColumn 75000004 40075 6078 1000. 99999999. 200000. 1 
element elasticBeamColumn 76000001 6273 6323 1080.000000 4030508.652763 49364.024561 2 
element elasticBeamColumn 76000003 6272 6323 1000. 99999999. 200000. 1 
element elasticBeamColumn 76000004 6323 6079 1000. 99999999. 200000. 1 
node 40077 0.000000 3126.000000 
element elasticBeamColumn 77000002 40077 6275 1080.000000 4030508.652763 49364.024561 2 
element elasticBeamColumn 77000003 6274 40077 1000. 99999999. 200000. 1 
element elasticBeamColumn 77000004 40077 6080 1000. 99999999. 200000. 1 
node 40078 240.000000 3126.000000 
element elasticBeamColumn 78000001 6277 40078 1080.000000 4030508.652763 49364.024561 2 
element elasticBeamColumn 78000002 40078 6278 1080.000000 4030508.652763 49364.024561 2 
element elasticBeamColumn 78000003 6276 40078 1000. 99999999. 200000. 1 
element elasticBeamColumn 78000004 40078 6081 1000. 99999999. 200000. 1 
node 40079 480.000000 3126.000000 
element elasticBeamColumn 79000001 6280 40079 1080.000000 4030508.652763 49364.024561 2 
element elasticBeamColumn 79000002 40079 6281 1080.000000 4030508.652763 49364.024561 2 
element elasticBeamColumn 79000003 6279 40079 1000. 99999999. 200000. 1 
element elasticBeamColumn 79000004 40079 6082 1000. 99999999. 200000. 1 
element elasticBeamColumn 80000001 6283 6324 1080.000000 4030508.652763 49364.024561 2 
element elasticBeamColumn 80000003 6282 6324 1000. 99999999. 200000. 1 
element elasticBeamColumn 80000004 6324 6083 1000. 99999999. 200000. 1 
uniaxialMaterial IMKPeakOriented 181 414002229950.619870 0.094614 0.115179 0.999999 61301989.791422 1.188211 0.050000 0.094614 0.115179 0.999999 61301989.791422 1.188211 0.050000 100.0 100.0 100.0 100.0 1.0 1.0 1.0 1.0 1.0 1.0 
element zeroLength 181 6325 6000 -mat 181 -dir 3 
element zeroLength 50181 6325 6000 -mat 1 1 -dir 1 2 
uniaxialMaterial IMKPeakOriented 182 414002229950.619870 0.094614 0.115179 0.999999 61301989.791422 1.188211 0.050000 0.094614 0.115179 0.999999 61301989.791422 1.188211 0.050000 100.0 100.0 100.0 100.0 1.0 1.0 1.0 1.0 1.0 1.0 
element zeroLength 182 6084 6326 -mat 182 -dir 3 
element zeroLength 50182 6084 6326 -mat 1 1 -dir 1 2 
uniaxialMaterial IMKPeakOriented 183 173347489605.140960 0.057268 0.114852 0.999999 17007668.713695 1.209983 0.050000 0.057268 0.114852 0.999999 5091919.621600 1.209983 0.050000 100.0 100.0 100.0 100.0 1.0 1.0 1.0 1.0 1.0 1.0 
element zeroLength 183 6327 6085 -mat 183 -dir 3 
element zeroLength 50183 6327 6085 -mat 1 1 -dir 1 2 
uniaxialMaterial IMKPeakOriented 184 173347489605.140960 0.057268 0.114852 0.999999 17007668.713695 1.209983 0.050000 0.057268 0.114852 0.999999 5091919.621600 1.209983 0.050000 100.0 100.0 100.0 100.0 1.0 1.0 1.0 1.0 1.0 1.0 
element zeroLength 184 6087 6328 -mat 184 -dir 3 
element zeroLength 50184 6087 6328 -mat 1 1 -dir 1 2 
uniaxialMaterial IMKPeakOriented 185 414002229950.619870 0.083169 0.115230 0.999999 44378805.031890 1.184926 0.050000 0.083169 0.115230 0.999999 44378805.031890 1.184926 0.050000 100.0 100.0 100.0 100.0 1.0 1.0 1.0 1.0 1.0 1.0 
element zeroLength 185 6329 6003 -mat 185 -dir 3 
element zeroLength 50185 6329 6003 -mat 1 1 -dir 1 2 
uniaxialMaterial IMKPeakOriented 186 414002229950.619870 0.083169 0.115230 0.999999 44378805.031890 1.184926 0.050000 0.083169 0.115230 0.999999 44378805.031890 1.184926 0.050000 100.0 100.0 100.0 100.0 1.0 1.0 1.0 1.0 1.0 1.0 
element zeroLength 186 6086 6330 -mat 186 -dir 3 
element zeroLength 50186 6086 6330 -mat 1 1 -dir 1 2 
uniaxialMaterial IMKPeakOriented 187 173347489605.140960 0.057268 0.114852 0.999999 17007668.713695 1.209983 0.050000 0.057268 0.114852 0.999999 5091919.621600 1.209983 0.050000 100.0 100.0 100.0 100.0 1.0 1.0 1.0 1.0 1.0 1.0 
element zeroLength 187 6331 6088 -mat 187 -dir 3 
element zeroLength 50187 6331 6088 -mat 1 1 -dir 1 2 
uniaxialMaterial IMKPeakOriented 188 173347489605.140960 0.057268 0.114852 0.999999 17007668.713695 1.209983 0.050000 0.057268 0.114852 0.999999 5091919.621600 1.209983 0.050000 100.0 100.0 100.0 100.0 1.0 1.0 1.0 1.0 1.0 1.0 
element zeroLength 188 6090 6332 -mat 188 -dir 3 
element zeroLength 50188 6090 6332 -mat 1 1 -dir 1 2 
uniaxialMaterial IMKPeakOriented 189 414002229950.619870 0.083169 0.115230 0.999999 44378805.031890 1.184926 0.050000 0.083169 0.115230 0.999999 44378805.031890 1.184926 0.050000 100.0 100.0 100.0 100.0 1.0 1.0 1.0 1.0 1.0 1.0 
element zeroLength 189 6333 6005 -mat 189 -dir 3 
element zeroLength 50189 6333 6005 -mat 1 1 -dir 1 2 
uniaxialMaterial IMKPeakOriented 190 414002229950.619870 0.083169 0.115230 0.999999 44378805.031890 1.184926 0.050000 0.083169 0.115230 0.999999 44378805.031890 1.184926 0.050000 100.0 100.0 100.0 100.0 1.0 1.0 1.0 1.0 1.0 1.0 
element zeroLength 190 6089 6334 -mat 190 -dir 3 
element zeroLength 50190 6089 6334 -mat 1 1 -dir 1 2 
uniaxialMaterial IMKPeakOriented 191 173347489605.140960 0.057268 0.114852 0.999999 17007668.713695 1.209983 0.050000 0.057268 0.114852 0.999999 5091919.621600 1.209983 0.050000 100.0 100.0 100.0 100.0 1.0 1.0 1.0 1.0 1.0 1.0 
element zeroLength 191 6335 6091 -mat 191 -dir 3 
element zeroLength 50191 6335 6091 -mat 1 1 -dir 1 2 
uniaxialMaterial IMKPeakOriented 192 173347489605.140960 0.057268 0.114852 0.999999 17007668.713695 1.209983 0.050000 0.057268 0.114852 0.999999 5091919.621600 1.209983 0.050000 100.0 100.0 100.0 100.0 1.0 1.0 1.0 1.0 1.0 1.0 
element zeroLength 192 6093 6336 -mat 192 -dir 3 
element zeroLength 50192 6093 6336 -mat 1 1 -dir 1 2 
uniaxialMaterial IMKPeakOriented 193 414002229950.619870 0.094614 0.115179 0.999999 61301989.791422 1.188211 0.050000 0.094614 0.115179 0.999999 61301989.791422 1.188211 0.050000 100.0 100.0 100.0 100.0 1.0 1.0 1.0 1.0 1.0 1.0 
element zeroLength 193 6337 6007 -mat 193 -dir 3 
element zeroLength 50193 6337 6007 -mat 1 1 -dir 1 2 
uniaxialMaterial IMKPeakOriented 194 414002229950.619870 0.094614 0.115179 0.999999 61301989.791422 1.188211 0.050000 0.094614 0.115179 0.999999 61301989.791422 1.188211 0.050000 100.0 100.0 100.0 100.0 1.0 1.0 1.0 1.0 1.0 1.0 
element zeroLength 194 6092 6338 -mat 194 -dir 3 
element zeroLength 50194 6092 6338 -mat 1 1 -dir 1 2 
uniaxialMaterial IMKPeakOriented 195 501160594150.750430 0.088591 0.115174 0.999999 42847646.246529 1.188520 0.050000 0.088591 0.115174 0.999999 42847646.246529 1.188520 0.050000 100.0 100.0 100.0 100.0 1.0 1.0 1.0 1.0 1.0 1.0 
element zeroLength 195 6339 6001 -mat 195 -dir 3 
element zeroLength 50195 6339 6001 -mat 1 1 -dir 1 2 
uniaxialMaterial IMKPeakOriented 196 501160594150.750430 0.088591 0.115174 0.999999 42847646.246529 1.188520 0.050000 0.088591 0.115174 0.999999 42847646.246529 1.188520 0.050000 100.0 100.0 100.0 100.0 1.0 1.0 1.0 1.0 1.0 1.0 
element zeroLength 196 6094 6340 -mat 196 -dir 3 
element zeroLength 50196 6094 6340 -mat 1 1 -dir 1 2 
uniaxialMaterial IMKPeakOriented 197 173347489605.140960 0.065416 0.114852 0.999999 21098934.707494 1.209983 0.050000 0.065416 0.114852 0.999999 24616669.044057 1.209983 0.050000 100.0 100.0 100.0 100.0 1.0 1.0 1.0 1.0 1.0 1.0 
element zeroLength 197 6341 6095 -mat 197 -dir 3 
element zeroLength 50197 6341 6095 -mat 1 1 -dir 1 2 
uniaxialMaterial IMKPeakOriented 198 173347489605.140960 0.065416 0.114852 0.999999 21098934.707494 1.209983 0.050000 0.065416 0.114852 0.999999 24616669.044057 1.209983 0.050000 100.0 100.0 100.0 100.0 1.0 1.0 1.0 1.0 1.0 1.0 
element zeroLength 198 6097 6342 -mat 198 -dir 3 
element zeroLength 50198 6097 6342 -mat 1 1 -dir 1 2 
uniaxialMaterial IMKPeakOriented 199 501160594150.750430 0.083047 0.115222 0.999999 41641780.783152 1.185400 0.050000 0.083047 0.115222 0.999999 41641780.783152 1.185400 0.050000 100.0 100.0 100.0 100.0 1.0 1.0 1.0 1.0 1.0 1.0 
element zeroLength 199 6343 6002 -mat 199 -dir 3 
element zeroLength 50199 6343 6002 -mat 1 1 -dir 1 2 
uniaxialMaterial IMKPeakOriented 200 501160594150.750430 0.083047 0.115222 0.999999 41641780.783152 1.185400 0.050000 0.083047 0.115222 0.999999 41641780.783152 1.185400 0.050000 100.0 100.0 100.0 100.0 1.0 1.0 1.0 1.0 1.0 1.0 
element zeroLength 200 6096 6344 -mat 200 -dir 3 
element zeroLength 50200 6096 6344 -mat 1 1 -dir 1 2 
# ... 780 like lines cut
